<?xml version="1.0" encoding="UTF-8"?>

<!-- generated on 2024-11-06 13:34:23 by Eclipse SUMO netconvert Version 1.21.0
<netconvertConfiguration xmlns:xsi="http://www.w3.org/2001/XMLSchema-instance" xsi:noNamespaceSchemaLocation="http://sumo.dlr.de/xsd/netconvertConfiguration.xsd">

    <input>
        <osm-files value="map.osm.xml"/>
    </input>

    <output>
        <output-file value="map.net.xml"/>
    </output>

    <projection>
        <proj.utm value="true"/>
    </projection>

</netconvertConfiguration>
-->

<net version="1.20" junctionCornerDetail="5" limitTurnSpeed="5.50" xmlns:xsi="http://www.w3.org/2001/XMLSchema-instance" xsi:noNamespaceSchemaLocation="http://sumo.dlr.de/xsd/net_file.xsd">

    <location netOffset="-260303.60,-2909575.81" convBoundary="0.00,0.00,46449.85,77279.37" origBoundary="72.584861,26.292670,73.063071,26.983088" projParameter="+proj=utm +zone=43 +ellps=WGS84 +datum=WGS84 +units=m +no_defs"/>

    <type id="highway.residential" priority="3" numLanes="1" speed="13.89" disallow="tram rail_urban rail rail_electric rail_fast ship container cable_car subway aircraft wheelchair scooter drone" oneway="0"/>
    <type id="highway.service" priority="1" numLanes="1" speed="5.56" allow="pedestrian delivery bicycle" oneway="0"/>
    <type id="highway.tertiary" priority="10" numLanes="1" speed="22.22" disallow="tram rail_urban rail rail_electric rail_fast ship container cable_car subway aircraft wheelchair scooter drone" oneway="0"/>
    <type id="highway.trunk" priority="13" numLanes="2" speed="27.78" disallow="pedestrian bicycle tram rail_urban rail rail_electric rail_fast ship container cable_car subway aircraft wheelchair scooter drone" oneway="0"/>
    <type id="railway.rail" priority="20" numLanes="1" speed="44.44" allow="rail" oneway="1"/>

    <edge id=":2328928541_0" function="internal">
        <lane id=":2328928541_0_0" index="0" disallow="tram rail_urban rail rail_electric rail_fast ship container cable_car subway aircraft wheelchair scooter drone" speed="6.34" length="9.04" shape="44135.98,314.57 44133.51,314.17 44131.56,314.68 44130.14,316.11 44129.24,318.45"/>
    </edge>
    <edge id=":2328928541_1" function="internal">
        <lane id=":2328928541_1_0" index="0" disallow="tram rail_urban rail rail_electric rail_fast ship container cable_car subway aircraft wheelchair scooter drone" speed="13.89" length="14.78" shape="44135.98,314.57 44121.88,310.15"/>
    </edge>
    <edge id=":2328928541_2" function="internal">
        <lane id=":2328928541_2_0" index="0" disallow="tram rail_urban rail rail_electric rail_fast ship container cable_car subway aircraft wheelchair scooter drone" speed="8.19" length="4.19" shape="44135.98,314.57 44132.37,312.86 44132.24,312.72"/>
    </edge>
    <edge id=":2328928541_3" function="internal">
        <lane id=":2328928541_3_0" index="0" disallow="tram rail_urban rail rail_electric rail_fast ship container cable_car subway aircraft wheelchair scooter drone" speed="3.65" length="1.44" shape="44135.98,314.57 44135.08,313.45"/>
    </edge>
    <edge id=":2328928541_16" function="internal">
        <lane id=":2328928541_16_0" index="0" disallow="tram rail_urban rail rail_electric rail_fast ship container cable_car subway aircraft wheelchair scooter drone" speed="8.19" length="10.35" shape="44132.24,312.72 44130.12,310.42 44129.25,307.25 44129.74,303.34"/>
    </edge>
    <edge id=":2328928541_17" function="internal">
        <lane id=":2328928541_17_0" index="0" disallow="tram rail_urban rail rail_electric rail_fast ship container cable_car subway aircraft wheelchair scooter drone" speed="3.65" length="3.23" shape="44135.08,313.45 44134.93,312.56 44135.55,311.92 44136.94,311.51"/>
    </edge>
    <edge id=":2328928541_4" function="internal">
        <lane id=":2328928541_4_0" index="0" disallow="tram rail_urban rail rail_electric rail_fast ship container cable_car subway aircraft wheelchair scooter drone" speed="6.73" length="9.50" shape="44132.83,304.20 44132.51,306.74 44133.08,308.80 44134.56,310.39 44136.94,311.51"/>
    </edge>
    <edge id=":2328928541_5" function="internal">
        <lane id=":2328928541_5_0" index="0" disallow="tram rail_urban rail rail_electric rail_fast ship container cable_car subway aircraft wheelchair scooter drone" speed="13.89" length="14.69" shape="44132.83,304.20 44129.24,318.45"/>
    </edge>
    <edge id=":2328928541_6" function="internal">
        <lane id=":2328928541_6_0" index="0" disallow="tram rail_urban rail rail_electric rail_fast ship container cable_car subway aircraft wheelchair scooter drone" speed="7.94" length="14.32" shape="44132.83,304.20 44131.24,307.81 44128.89,310.01 44125.77,310.79 44121.88,310.15"/>
    </edge>
    <edge id=":2328928541_7" function="internal">
        <lane id=":2328928541_7_0" index="0" disallow="tram rail_urban rail rail_electric rail_fast ship container cable_car subway aircraft wheelchair scooter drone" speed="3.65" length="4.67" shape="44132.83,304.20 44131.74,305.14 44130.86,305.31 44130.19,304.71 44129.74,303.34"/>
    </edge>
    <edge id=":2328928541_8" function="internal">
        <lane id=":2328928541_8_0" index="0" disallow="tram rail_urban rail rail_electric rail_fast ship container cable_car subway aircraft wheelchair scooter drone" speed="6.44" length="9.03" shape="44122.84,307.10 44125.29,307.50 44127.26,307.01 44128.75,305.62 44129.74,303.34"/>
    </edge>
    <edge id=":2328928541_9" function="internal">
        <lane id=":2328928541_9_0" index="0" disallow="tram rail_urban rail rail_electric rail_fast ship container cable_car subway aircraft wheelchair scooter drone" speed="13.89" length="14.77" shape="44122.84,307.10 44136.94,311.51"/>
    </edge>
    <edge id=":2328928541_10" function="internal">
        <lane id=":2328928541_10_0" index="0" disallow="tram rail_urban rail rail_electric rail_fast ship container cable_car subway aircraft wheelchair scooter drone" speed="8.36" length="4.10" shape="44122.84,307.10 44126.38,308.80 44126.50,308.92"/>
    </edge>
    <edge id=":2328928541_11" function="internal">
        <lane id=":2328928541_11_0" index="0" disallow="tram rail_urban rail rail_electric rail_fast ship container cable_car subway aircraft wheelchair scooter drone" speed="3.65" length="1.44" shape="44122.84,307.10 44123.74,308.22"/>
    </edge>
    <edge id=":2328928541_18" function="internal">
        <lane id=":2328928541_18_0" index="0" disallow="tram rail_urban rail rail_electric rail_fast ship container cable_car subway aircraft wheelchair scooter drone" speed="8.36" length="10.51" shape="44126.50,308.92 44128.63,311.25 44129.58,314.47 44129.24,318.45"/>
    </edge>
    <edge id=":2328928541_19" function="internal">
        <lane id=":2328928541_19_0" index="0" disallow="tram rail_urban rail rail_electric rail_fast ship container cable_car subway aircraft wheelchair scooter drone" speed="3.65" length="3.23" shape="44123.74,308.22 44123.89,309.11 44123.26,309.75 44121.88,310.15"/>
    </edge>
    <edge id=":2328928541_12" function="internal">
        <lane id=":2328928541_12_0" index="0" disallow="tram rail_urban rail rail_electric rail_fast ship container cable_car subway aircraft wheelchair scooter drone" speed="6.93" length="9.75" shape="44126.12,317.74 44126.35,315.08 44125.72,312.92 44124.23,311.28 44121.88,310.15"/>
    </edge>
    <edge id=":2328928541_13" function="internal">
        <lane id=":2328928541_13_0" index="0" disallow="tram rail_urban rail rail_electric rail_fast ship container cable_car subway aircraft wheelchair scooter drone" speed="13.89" length="14.85" shape="44126.12,317.74 44129.74,303.34"/>
    </edge>
    <edge id=":2328928541_14" function="internal">
        <lane id=":2328928541_14_0" index="0" disallow="tram rail_urban rail rail_electric rail_fast ship container cable_car subway aircraft wheelchair scooter drone" speed="7.86" length="14.51" shape="44126.12,317.74 44127.56,313.99 44129.84,311.70 44132.97,310.87 44136.94,311.51"/>
    </edge>
    <edge id=":2328928541_15" function="internal">
        <lane id=":2328928541_15_0" index="0" disallow="tram rail_urban rail rail_electric rail_fast ship container cable_car subway aircraft wheelchair scooter drone" speed="3.65" length="4.67" shape="44126.12,317.74 44127.17,316.75 44128.04,316.54 44128.73,317.10 44129.24,318.45"/>
    </edge>
    <edge id=":2328928542_0" function="internal">
        <lane id=":2328928542_0_0" index="0" disallow="tram rail_urban rail rail_electric rail_fast ship container cable_car subway aircraft wheelchair scooter drone" speed="3.65" length="4.67" shape="44299.98,360.84 44300.91,361.94 44301.07,362.82 44300.47,363.48 44299.09,363.92"/>
    </edge>
    <edge id=":2329817954_0" function="internal">
        <lane id=":2329817954_0_0" index="0" disallow="tram rail_urban rail rail_electric rail_fast ship container cable_car subway aircraft wheelchair scooter drone" speed="22.22" length="0.10" shape="44260.68,473.06 44260.68,473.06"/>
    </edge>
    <edge id=":2333265044_0" function="internal">
        <lane id=":2333265044_0_0" index="0" disallow="tram rail_urban rail rail_electric rail_fast ship container cable_car subway aircraft wheelchair scooter drone" speed="3.65" length="4.67" shape="44493.35,908.23 44494.49,909.11 44494.84,909.93 44494.39,910.70 44493.13,911.42"/>
    </edge>
    <edge id=":2333266302_0" function="internal">
        <lane id=":2333266302_0_0" index="0" disallow="tram rail_urban rail rail_electric rail_fast ship container cable_car subway aircraft wheelchair scooter drone" speed="13.89" length="14.34" shape="44074.31,774.29 44069.76,787.89"/>
    </edge>
    <edge id=":2333266302_1" function="internal">
        <lane id=":2333266302_1_0" index="0" disallow="tram rail_urban rail rail_electric rail_fast ship container cable_car subway aircraft wheelchair scooter drone" speed="8.51" length="3.69" shape="44074.31,774.29 44072.58,777.55"/>
    </edge>
    <edge id=":2333266302_2" function="internal">
        <lane id=":2333266302_2_0" index="0" disallow="tram rail_urban rail rail_electric rail_fast ship container cable_car subway aircraft wheelchair scooter drone" speed="3.65" length="1.44" shape="44074.31,774.29 44073.16,775.16"/>
    </edge>
    <edge id=":2333266302_9" function="internal">
        <lane id=":2333266302_9_0" index="0" disallow="tram rail_urban rail rail_electric rail_fast ship container cable_car subway aircraft wheelchair scooter drone" speed="8.51" length="10.69" shape="44072.58,777.55 44070.09,779.63 44066.82,780.55 44062.79,780.30"/>
    </edge>
    <edge id=":2333266302_10" function="internal">
        <lane id=":2333266302_10_0" index="0" disallow="tram rail_urban rail rail_electric rail_fast ship container cable_car subway aircraft wheelchair scooter drone" speed="3.65" length="3.23" shape="44073.16,775.16 44072.27,775.27 44071.65,774.63 44071.29,773.24"/>
    </edge>
    <edge id=":2333266302_3" function="internal">
        <lane id=":2333266302_3_0" index="0" disallow="tram rail_urban rail rail_electric rail_fast ship container cable_car subway aircraft wheelchair scooter drone" speed="7.11" length="9.75" shape="44063.38,777.15 44066.18,777.34 44068.43,776.76 44070.13,775.39 44071.29,773.24"/>
    </edge>
    <edge id=":2333266302_4" function="internal">
        <lane id=":2333266302_4_0" index="0" disallow="tram rail_urban rail rail_electric rail_fast ship container cable_car subway aircraft wheelchair scooter drone" speed="7.80" length="14.68" shape="44063.38,777.15 44067.26,778.48 44069.61,780.72 44070.45,783.85 44069.76,787.89"/>
    </edge>
    <edge id=":2333266302_5" function="internal">
        <lane id=":2333266302_5_0" index="0" disallow="tram rail_urban rail rail_electric rail_fast ship container cable_car subway aircraft wheelchair scooter drone" speed="3.65" length="4.67" shape="44063.38,777.15 44064.41,778.16 44064.66,779.02 44064.11,779.73 44062.79,780.30"/>
    </edge>
    <edge id=":2333266302_6" function="internal">
        <lane id=":2333266302_6_0" index="0" disallow="tram rail_urban rail rail_electric rail_fast ship container cable_car subway aircraft wheelchair scooter drone" speed="6.26" length="9.05" shape="44066.72,786.91 44067.14,784.42 44066.62,782.49 44065.17,781.12 44062.79,780.30"/>
    </edge>
    <edge id=":2333266302_7" function="internal">
        <lane id=":2333266302_7_0" index="0" disallow="tram rail_urban rail rail_electric rail_fast ship container cable_car subway aircraft wheelchair scooter drone" speed="13.89" length="14.42" shape="44066.72,786.91 44071.29,773.24"/>
    </edge>
    <edge id=":2333266302_8" function="internal">
        <lane id=":2333266302_8_0" index="0" disallow="tram rail_urban rail rail_electric rail_fast ship container cable_car subway aircraft wheelchair scooter drone" speed="3.65" length="1.44" shape="44066.72,786.91 44067.85,786.01"/>
    </edge>
    <edge id=":2333266302_11" function="internal">
        <lane id=":2333266302_11_0" index="0" disallow="tram rail_urban rail rail_electric rail_fast ship container cable_car subway aircraft wheelchair scooter drone" speed="3.65" length="3.23" shape="44067.85,786.01 44068.73,785.88 44069.37,786.50 44069.76,787.89"/>
    </edge>
    <edge id=":2333266309_0" function="internal">
        <lane id=":2333266309_0_0" index="0" disallow="tram rail_urban rail rail_electric rail_fast ship container cable_car subway aircraft wheelchair scooter drone" speed="13.89" length="14.38" shape="44145.28,566.53 44140.70,580.17"/>
    </edge>
    <edge id=":2333266309_1" function="internal">
        <lane id=":2333266309_1_0" index="0" disallow="tram rail_urban rail rail_electric rail_fast ship container cable_car subway aircraft wheelchair scooter drone" speed="8.16" length="3.97" shape="44145.28,566.53 44143.54,569.93 44143.42,570.03"/>
    </edge>
    <edge id=":2333266309_2" function="internal">
        <lane id=":2333266309_2_0" index="0" disallow="tram rail_urban rail rail_electric rail_fast ship container cable_car subway aircraft wheelchair scooter drone" speed="3.65" length="1.44" shape="44145.28,566.53 44144.13,567.41"/>
    </edge>
    <edge id=":2333266309_9" function="internal">
        <lane id=":2333266309_9_0" index="0" disallow="tram rail_urban rail rail_electric rail_fast ship container cable_car subway aircraft wheelchair scooter drone" speed="8.16" length="10.28" shape="44143.42,570.03 44141.08,572.01 44137.90,572.78 44134.00,572.22"/>
    </edge>
    <edge id=":2333266309_10" function="internal">
        <lane id=":2333266309_10_0" index="0" disallow="tram rail_urban rail rail_electric rail_fast ship container cable_car subway aircraft wheelchair scooter drone" speed="3.65" length="3.23" shape="44144.13,567.41 44143.25,567.53 44142.62,566.90 44142.25,565.51"/>
    </edge>
    <edge id=":2333266309_3" function="internal">
        <lane id=":2333266309_3_0" index="0" disallow="tram rail_urban rail rail_electric rail_fast ship container cable_car subway aircraft wheelchair scooter drone" speed="6.70" length="9.27" shape="44134.87,569.14 44137.43,569.51 44139.52,569.03 44141.12,567.69 44142.25,565.51"/>
    </edge>
    <edge id=":2333266309_4" function="internal">
        <lane id=":2333266309_4_0" index="0" disallow="tram rail_urban rail rail_electric rail_fast ship container cable_car subway aircraft wheelchair scooter drone" speed="7.92" length="14.36" shape="44134.87,569.14 44138.49,570.76 44140.67,573.13 44141.40,576.27 44140.70,580.17"/>
    </edge>
    <edge id=":2333266309_5" function="internal">
        <lane id=":2333266309_5_0" index="0" disallow="tram rail_urban rail rail_electric rail_fast ship container cable_car subway aircraft wheelchair scooter drone" speed="3.65" length="4.67" shape="44134.87,569.14 44135.81,570.24 44135.97,571.12 44135.37,571.78 44134.00,572.22"/>
    </edge>
    <edge id=":2333266309_6" function="internal">
        <lane id=":2333266309_6_0" index="0" disallow="tram rail_urban rail rail_electric rail_fast ship container cable_car subway aircraft wheelchair scooter drone" speed="6.41" length="9.04" shape="44137.66,579.16 44138.11,576.70 44137.64,574.73 44136.27,573.24 44134.00,572.22"/>
    </edge>
    <edge id=":2333266309_7" function="internal">
        <lane id=":2333266309_7_0" index="0" disallow="tram rail_urban rail rail_electric rail_fast ship container cable_car subway aircraft wheelchair scooter drone" speed="13.89" length="14.40" shape="44137.66,579.16 44142.25,565.51"/>
    </edge>
    <edge id=":2333266309_8" function="internal">
        <lane id=":2333266309_8_0" index="0" disallow="tram rail_urban rail rail_electric rail_fast ship container cable_car subway aircraft wheelchair scooter drone" speed="3.65" length="1.44" shape="44137.66,579.16 44138.80,578.27"/>
    </edge>
    <edge id=":2333266309_11" function="internal">
        <lane id=":2333266309_11_0" index="0" disallow="tram rail_urban rail rail_electric rail_fast ship container cable_car subway aircraft wheelchair scooter drone" speed="3.65" length="3.23" shape="44138.80,578.27 44139.69,578.14 44140.32,578.77 44140.70,580.17"/>
    </edge>
    <edge id=":2333266310_0" function="internal">
        <lane id=":2333266310_0_0" index="0" disallow="tram rail_urban rail rail_electric rail_fast ship container cable_car subway aircraft wheelchair scooter drone" speed="13.89" length="14.70" shape="44044.22,863.27 44038.29,876.72"/>
    </edge>
    <edge id=":2333266310_1" function="internal">
        <lane id=":2333266310_1_0" index="0" disallow="tram rail_urban rail rail_electric rail_fast ship container cable_car subway aircraft wheelchair scooter drone" speed="8.06" length="4.27" shape="44044.22,863.27 44042.26,866.63 44041.95,866.85"/>
    </edge>
    <edge id=":2333266310_2" function="internal">
        <lane id=":2333266310_2_0" index="0" disallow="tram rail_urban rail rail_electric rail_fast ship container cable_car subway aircraft wheelchair scooter drone" speed="3.65" length="1.44" shape="44044.22,863.27 44043.03,864.09"/>
    </edge>
    <edge id=":2333266310_9" function="internal">
        <lane id=":2333266310_9_0" index="0" disallow="tram rail_urban rail rail_electric rail_fast ship container cable_car subway aircraft wheelchair scooter drone" speed="8.06" length="10.09" shape="44041.95,866.85 44039.66,868.54 44036.43,869.02 44032.56,868.07"/>
    </edge>
    <edge id=":2333266310_10" function="internal">
        <lane id=":2333266310_10_0" index="0" disallow="tram rail_urban rail rail_electric rail_fast ship container cable_car subway aircraft wheelchair scooter drone" speed="3.65" length="3.23" shape="44043.03,864.09 44042.14,864.16 44041.54,863.49 44041.25,862.07"/>
    </edge>
    <edge id=":2333266310_3" function="internal">
        <lane id=":2333266310_3_0" index="0" disallow="tram rail_urban rail rail_electric rail_fast ship container cable_car subway aircraft wheelchair scooter drone" speed="6.58" length="9.22" shape="44033.75,865.10 44036.24,865.72 44038.33,865.42 44040.00,864.21 44041.25,862.07"/>
    </edge>
    <edge id=":2333266310_4" function="internal">
        <lane id=":2333266310_4_0" index="0" disallow="tram rail_urban rail rail_electric rail_fast ship container cable_car subway aircraft wheelchair scooter drone" speed="7.89" length="14.45" shape="44033.75,865.10 44037.21,867.10 44039.12,869.70 44039.48,872.91 44038.29,876.72"/>
    </edge>
    <edge id=":2333266310_5" function="internal">
        <lane id=":2333266310_5_0" index="0" disallow="tram rail_urban rail rail_electric rail_fast ship container cable_car subway aircraft wheelchair scooter drone" speed="3.65" length="4.67" shape="44033.75,865.10 44034.56,866.29 44034.64,867.18 44033.97,867.77 44032.56,868.07"/>
    </edge>
    <edge id=":2333266310_6" function="internal">
        <lane id=":2333266310_6_0" index="0" disallow="tram rail_urban rail rail_electric rail_fast ship container cable_car subway aircraft wheelchair scooter drone" speed="6.37" length="9.04" shape="44035.40,875.34 44036.14,872.95 44035.92,870.95 44034.72,869.32 44032.56,868.07"/>
    </edge>
    <edge id=":2333266310_7" function="internal">
        <lane id=":2333266310_7_0" index="0" disallow="tram rail_urban rail rail_electric rail_fast ship container cable_car subway aircraft wheelchair scooter drone" speed="13.89" length="14.50" shape="44035.40,875.34 44041.25,862.07"/>
    </edge>
    <edge id=":2333266310_8" function="internal">
        <lane id=":2333266310_8_0" index="0" disallow="tram rail_urban rail rail_electric rail_fast ship container cable_car subway aircraft wheelchair scooter drone" speed="3.65" length="1.44" shape="44035.40,875.34 44036.64,874.60"/>
    </edge>
    <edge id=":2333266310_11" function="internal">
        <lane id=":2333266310_11_0" index="0" disallow="tram rail_urban rail rail_electric rail_fast ship container cable_car subway aircraft wheelchair scooter drone" speed="3.65" length="3.23" shape="44036.64,874.60 44037.53,874.59 44038.08,875.29 44038.29,876.72"/>
    </edge>
    <edge id=":2333267527_0" function="internal">
        <lane id=":2333267527_0_0" index="0" disallow="tram rail_urban rail rail_electric rail_fast ship container cable_car subway aircraft wheelchair scooter drone" speed="6.92" length="9.64" shape="43996.50,623.84 43993.74,624.11 43991.68,625.07 43990.32,626.74 43989.66,629.10"/>
    </edge>
    <edge id=":2333267527_1" function="internal">
        <lane id=":2333267527_1_0" index="0" disallow="tram rail_urban rail rail_electric rail_fast ship container cable_car subway aircraft wheelchair scooter drone" speed="7.78" length="14.74" shape="43996.50,623.84 43992.43,623.14 43989.76,621.30 43988.46,618.32 43988.55,614.20"/>
    </edge>
    <edge id=":2333267527_2" function="internal">
        <lane id=":2333267527_2_0" index="0" disallow="tram rail_urban rail rail_electric rail_fast ship container cable_car subway aircraft wheelchair scooter drone" speed="3.65" length="4.67" shape="43996.50,623.84 43995.32,623.01 43994.94,622.20 43995.36,621.41 43996.58,620.64"/>
    </edge>
    <edge id=":2333267527_3" function="internal">
        <lane id=":2333267527_3_0" index="0" disallow="tram rail_urban rail rail_electric rail_fast ship container cable_car subway aircraft wheelchair scooter drone" speed="6.23" length="9.05" shape="43991.71,614.73 43991.65,617.26 43992.45,619.09 43994.09,620.21 43996.58,620.64"/>
    </edge>
    <edge id=":2333267527_4" function="internal">
        <lane id=":2333267527_4_0" index="0" disallow="tram rail_urban rail rail_electric rail_fast ship container cable_car subway aircraft wheelchair scooter drone" speed="13.89" length="14.52" shape="43991.71,614.73 43989.66,629.10"/>
    </edge>
    <edge id=":2333267527_5" function="internal">
        <lane id=":2333267527_5_0" index="0" disallow="tram rail_urban rail rail_electric rail_fast ship container cable_car subway aircraft wheelchair scooter drone" speed="3.65" length="1.44" shape="43991.71,614.73 43990.72,615.78"/>
    </edge>
    <edge id=":2333267527_9" function="internal">
        <lane id=":2333267527_9_0" index="0" disallow="tram rail_urban rail rail_electric rail_fast ship container cable_car subway aircraft wheelchair scooter drone" speed="3.65" length="3.23" shape="43990.72,615.78 43989.86,616.04 43989.14,615.52 43988.55,614.20"/>
    </edge>
    <edge id=":2333267527_6" function="internal">
        <lane id=":2333267527_6_0" index="0" disallow="tram rail_urban rail rail_electric rail_fast ship container cable_car subway aircraft wheelchair scooter drone" speed="13.89" length="14.68" shape="43986.48,628.73 43988.55,614.20"/>
    </edge>
    <edge id=":2333267527_7" function="internal">
        <lane id=":2333267527_7_0" index="0" disallow="tram rail_urban rail rail_electric rail_fast ship container cable_car subway aircraft wheelchair scooter drone" speed="8.34" length="4.10" shape="43986.48,628.73 43987.48,625.10 43987.68,624.84"/>
    </edge>
    <edge id=":2333267527_8" function="internal">
        <lane id=":2333267527_8_0" index="0" disallow="tram rail_urban rail rail_electric rail_fast ship container cable_car subway aircraft wheelchair scooter drone" speed="3.65" length="1.44" shape="43986.48,628.73 43987.41,627.63"/>
    </edge>
    <edge id=":2333267527_10" function="internal">
        <lane id=":2333267527_10_0" index="0" disallow="tram rail_urban rail rail_electric rail_fast ship container cable_car subway aircraft wheelchair scooter drone" speed="8.34" length="10.39" shape="43987.68,624.84 43989.49,622.54 43992.53,621.06 43996.58,620.64"/>
    </edge>
    <edge id=":2333267527_11" function="internal">
        <lane id=":2333267527_11_0" index="0" disallow="tram rail_urban rail rail_electric rail_fast ship container cable_car subway aircraft wheelchair scooter drone" speed="3.65" length="3.23" shape="43987.41,627.63 43988.26,627.33 43989.00,627.82 43989.66,629.10"/>
    </edge>
    <edge id=":2333267533_0" function="internal">
        <lane id=":2333267533_0_0" index="0" disallow="tram rail_urban rail rail_electric rail_fast ship container cable_car subway aircraft wheelchair scooter drone" speed="7.42" length="10.00" shape="43986.99,680.33 43986.26,678.01 43984.83,676.28 43982.69,675.14 43979.85,674.58"/>
    </edge>
    <edge id=":2333267533_1" function="internal">
        <lane id=":2333267533_1_0" index="0" disallow="tram rail_urban rail rail_electric rail_fast ship container cable_car subway aircraft wheelchair scooter drone" speed="13.89" length="14.36" shape="43986.99,680.33 43985.59,666.04"/>
    </edge>
    <edge id=":2333267533_2" function="internal">
        <lane id=":2333267533_2_0" index="0" disallow="tram rail_urban rail rail_electric rail_fast ship container cable_car subway aircraft wheelchair scooter drone" speed="3.65" length="1.44" shape="43986.99,680.33 43987.61,679.03"/>
    </edge>
    <edge id=":2333267533_9" function="internal">
        <lane id=":2333267533_9_0" index="0" disallow="tram rail_urban rail rail_electric rail_fast ship container cable_car subway aircraft wheelchair scooter drone" speed="3.65" length="3.23" shape="43987.61,679.03 43988.34,678.52 43989.19,678.80 43990.15,679.88"/>
    </edge>
    <edge id=":2333267533_3" function="internal">
        <lane id=":2333267533_3_0" index="0" disallow="tram rail_urban rail rail_electric rail_fast ship container cable_car subway aircraft wheelchair scooter drone" speed="13.89" length="14.10" shape="43988.78,665.84 43990.15,679.88"/>
    </edge>
    <edge id=":2333267533_4" function="internal">
        <lane id=":2333267533_4_0" index="0" disallow="tram rail_urban rail rail_electric rail_fast ship container cable_car subway aircraft wheelchair scooter drone" speed="7.77" length="3.94" shape="43988.78,665.84 43988.45,669.77"/>
    </edge>
    <edge id=":2333267533_5" function="internal">
        <lane id=":2333267533_5_0" index="0" disallow="tram rail_urban rail rail_electric rail_fast ship container cable_car subway aircraft wheelchair scooter drone" speed="3.65" length="1.44" shape="43988.78,665.84 43988.05,667.09"/>
    </edge>
    <edge id=":2333267533_10" function="internal">
        <lane id=":2333267533_10_0" index="0" disallow="tram rail_urban rail rail_electric rail_fast ship container cable_car subway aircraft wheelchair scooter drone" speed="7.77" length="10.82" shape="43988.45,669.77 43988.44,669.96 43986.83,672.79 43983.97,674.33 43979.85,674.58"/>
    </edge>
    <edge id=":2333267533_11" function="internal">
        <lane id=":2333267533_11_0" index="0" disallow="tram rail_urban rail rail_electric rail_fast ship container cable_car subway aircraft wheelchair scooter drone" speed="3.65" length="3.23" shape="43988.05,667.09 43987.28,667.54 43986.46,667.19 43985.59,666.04"/>
    </edge>
    <edge id=":2333267533_6" function="internal">
        <lane id=":2333267533_6_0" index="0" disallow="tram rail_urban rail rail_electric rail_fast ship container cable_car subway aircraft wheelchair scooter drone" speed="6.22" length="9.05" shape="43980.11,671.39 43982.64,671.24 43984.39,670.29 43985.38,668.56 43985.59,666.04"/>
    </edge>
    <edge id=":2333267533_7" function="internal">
        <lane id=":2333267533_7_0" index="0" disallow="tram rail_urban rail rail_electric rail_fast ship container cable_car subway aircraft wheelchair scooter drone" speed="8.78" length="14.35" shape="43980.11,671.39 43984.09,672.20 43987.09,673.88 43989.11,676.44 43990.15,679.88"/>
    </edge>
    <edge id=":2333267533_8" function="internal">
        <lane id=":2333267533_8_0" index="0" disallow="tram rail_urban rail rail_electric rail_fast ship container cable_car subway aircraft wheelchair scooter drone" speed="3.65" length="4.67" shape="43980.11,671.39 43981.24,672.29 43981.57,673.12 43981.11,673.88 43979.85,674.58"/>
    </edge>
    <edge id=":2333267534_0" function="internal">
        <lane id=":2333267534_0_0" index="0" disallow="tram rail_urban rail rail_electric rail_fast ship container cable_car subway aircraft wheelchair scooter drone" speed="6.84" length="9.02" shape="43984.82,653.31 43984.34,651.00 43983.21,649.28 43981.42,648.16 43978.99,647.65"/>
    </edge>
    <edge id=":2333267534_1" function="internal">
        <lane id=":2333267534_1_0" index="0" disallow="tram rail_urban rail rail_electric rail_fast ship container cable_car subway aircraft wheelchair scooter drone" speed="13.89" length="13.82" shape="43984.82,653.31 43984.68,649.75 43984.70,646.41 43984.88,643.07 43985.23,639.52"/>
    </edge>
    <edge id=":2333267534_2" function="internal">
        <lane id=":2333267534_2_0" index="0" disallow="tram rail_urban rail rail_electric rail_fast ship container cable_car subway aircraft wheelchair scooter drone" speed="3.65" length="1.44" shape="43984.82,653.31 43985.55,652.07"/>
    </edge>
    <edge id=":2333267534_9" function="internal">