<?xml version="1.0" encoding="UTF-8"?>

<!-- generated on 2025-02-16 16:54:56.998706 by randomTrips.py UNKNOWN
<configuration>
    <net-file value="map.net.xml"/>
    <route-file value="map.rou.xml"/>
    <end value="200.0"/>
    <insertion-density value="30.0"/>
</configuration>
-->

<!-- generated on 2025-02-16 16:54:56 by Eclipse SUMO duarouter Version 1.22.0
<duarouterConfiguration xmlns:xsi="http://www.w3.org/2001/XMLSchema-instance" xsi:noNamespaceSchemaLocation="http://sumo.dlr.de/xsd/duarouterConfiguration.xsd">

    <input>
        <net-file value="map.net.xml"/>
        <route-files value="trips.trips.xml"/>
    </input>

    <output>
        <output-file value="map.rou.xml"/>
        <alternatives-output value="NUL"/>
    </output>

    <time>
        <begin value="0.0"/>
        <end value="200.0"/>
    </time>

    <report>
        <no-warnings value="true"/>
        <ignore-errors value="true"/>
        <no-step-log value="true"/>
    </report>

</duarouterConfiguration>
-->

<routes xmlns:xsi="http://www.w3.org/2001/XMLSchema-instance" xsi:noNamespaceSchemaLocation="http://sumo.dlr.de/xsd/routes_file.xsd">
    <vehicle id="2" depart="8.08">
        <route edges="374528353#2 220336641#5 374528335#0 374528335#1 374528335#2 -374528351#7 374528349#0 374528349#1"/>
    </vehicle>
    <vehicle id="5" depart="20.20">
        <route edges="-374528351#3 -1047615534 31731787#1 31731787#2 374528350#0 374528350#1 374528350#2 374528350#3 220336641#1 914659526#0 914659526#1 914659526#2 914659526#3 914659526#4 914659524#0 224056136#6 224506572#0 224506572#1"/>
    </vehicle>
    <vehicle id="6" depart="24.24">
        <route edges="-224056136#5 914659523#1 -914659526#4 -914659526#3 -914659526#2 -914659526#1 -914659526#0 220336641#2 -374528362#3 374528352#0 374528352#1 374528352#2 374528352#3 31731787#2 374528350#0 374528350#1 374528350#2 -374528350#2"/>
    </vehicle>
    <vehicle id="9" depart="36.37">
        <route edges="604219948#0 604219945 -224508078#7 -224508078#6 -224508078#5 -224508078#4 604219975#2 -1047615532 914568512 -914659526#2 -914659526#1 -914659526#0 220336641#2 220336641#3 220336641#4 -374528353#2 374528351#0 374528351#1 374528351#2 -1047615534"/>
    </vehicle>
    <vehicle id="10" depart="40.41">
        <route edges="604219942 -224506572#0 -224056136#6 -224056136#5 914659523#1 -914659526#4 -914659526#3 -914659526#2 -914659526#1 -914659526#0 220336641#2 220336641#3 220336641#4 -374528353#2 374528351#0 374528351#1 374528351#2"/>
    </vehicle>
    <vehicle id="11" depart="44.45">
        <route edges="-604219973 -224508677#0 -224507345#0 921334357#2 921334357#3 921334357#4 921334357#5 921334357#6 -914659526#0 220336641#2 220336641#3 220336641#4 220336641#5 374528335#0 374528335#1 -374528335#1"/>
    </vehicle>
    <vehicle id="12" depart="48.49">
        <route edges="914659522 914659523#0 914659523#1 -914659526#4 -914659526#3 -914568512 1047615532 -604219975#2"/>
    </vehicle>
    <vehicle id="13" depart="52.53">
        <route edges="-224508078#9 -224508078#8 -224508078#7 -224508078#6 -224508078#5 -224508078#4 -604219975#1 -604219975#0 224508438#1 224508438#2 -224508438#2"/>
    </vehicle>
    <vehicle id="15" depart="60.61">
        <route edges="604219945 -224508078#7 -224508078#6 -224508078#5 -224508078#4 604219975#2 -1047615532 914568512 -914659526#2 -914659526#1 -914659526#0 220336641#2 220336641#3 220336641#4 -374528353#2 -374528353#1 -374528349#3 -374528349#2 374528358"/>
    </vehicle>
    <vehicle id="16" depart="64.65">
        <route edges="224507345#0 224508677#0 604219973 224508438#2 921334357#3 921334357#4 921334357#5 921334357#6 914659526#1"/>
    </vehicle>
    <vehicle id="20" depart="80.82">
        <route edges="374528351#0 374528351#1 374528351#2 -1047615534 31731787#1 31731787#2 374528350#0 374528350#1 374528350#2 374528350#3 220336641#1 914659526#0 914659526#1 914659526#2 -914568512 1047615532 -604219975#2 -224508078#3 374528340#0 374528340#1 374528340#2 -604219953#0 604219971#1 -224506572#5"/>
    </vehicle>
    <vehicle id="22" depart="88.90">
        <route edges="-224508078#3 -224508078#2 224508438#0 224508438#1 224508438#2 921334357#3 921334357#4 921334357#5 921334357#6 -914659526#0 220336641#2 220336641#3 220336641#4 -374528353#2 -374528353#1 -374528353#0"/>
    </vehicle>
    <vehicle id="28" depart="113.14">
        <route edges="-374528340#1 -374528340#0 -224508078#2 224508438#0 224508438#1 224508438#2 921334357#3 921334357#4 921334357#5 921334357#6 -914659526#0 220336641#2 220336641#3 220336641#4 -374528353#2 -374528353#1 -374528349#3 -374528349#2 374528358"/>
    </vehicle>
    <vehicle id="29" depart="117.18">
        <route edges="-374528335#3 -374528351#7 374528349#0 -604235339#1 -604235339#0"/>
    </vehicle>
    <vehicle id="30" depart="121.22">
        <route edges="921334357#3 921334357#4 921334357#5 921334357#6 -914659526#0 220336641#2 220336641#3 220336641#4 220336641#5 374528335#0 374528335#1"/>
    </vehicle>
    <vehicle id="31" depart="125.26">
        <route edges="224508078#3 604219975#2 -1047615532 914568512 -914659526#2 -914659526#1 -914659526#0 220336641#2 -374528362#3 374528352#0 374528352#1 374528352#2 374528352#3 31731787#2 374528350#0"/>
    </vehicle>
    <vehicle id="33" depart="133.34">
        <route edges="-374528351#7 -374528351#6 -374528351#5 -374528351#4 -374528351#3 -1047615534 31731787#1 31731787#2 374528350#0 374528350#1 374528350#2 374528350#3 220336641#1 914659526#0 914659526#1 914659526#2 -914568512 1047615532 -604219975#2 224508078#4 224508078#5 224508078#6 224508078#7 224508078#8 224508078#9 -224506572#1 -224506572#0"/>
    </vehicle>
    <vehicle id="37" depart="149.51">
        <route edges="374528335#1 374528335#2 -374528351#7 -374528351#6 -374528351#5 -374528351#4 -374528351#3 -374528351#2 374530664#0 604236967#0 604236967#1 -604236966"/>
    </vehicle>
    <vehicle id="40" depart="161.63">
        <route edges="224508078#4 224508078#5 -224508078#5 -224508078#4 604219975#2 -1047615532 914568512 -914659526#2 -914659526#1 -914659526#0 220336641#2 -374528362#3 -374528362#2"/>
    </vehicle>
    <vehicle id="43" depart="173.75">
        <route edges="921334357#6 914659526#1 914659526#2 914659526#3 914659526#4 914659524#0 224056136#6 224506572#0 224506572#1 224506572#2 224506572#3"/>
    </vehicle>
    <vehicle id="44" depart="177.79">
        <route edges="-224508078#8 -224508078#7 -604219952 374528340#2 -604219953#0 -604219971#0 224507345#4 224507345#5 -224506572#6"/>
    </vehicle>
    <vehicle id="46" depart="185.87">
        <route edges="604215994#1 -31731792#5 374530650#0 -914573024"/>
    </vehicle>
    <vehicle id="47" depart="189.92">
        <route edges="-224507345#3 -224507345#2 -224507345#1 -224507345#0 921334357#2 921334357#3 921334357#4 921334357#5 921334357#6 -914659526#0 220336641#2 220336641#3 220336641#4 -374528353#2 -374528353#1 -374528349#3 -374528349#2 -374528349#1 -604235339#1"/>
    </vehicle>
    <vehicle id="48" depart="193.96">
        <route edges="921334357#6 914659526#1 914659526#2 -914568512 1047615532 -604219975#2 -224508078#3 -224508078#2 -224508078#1 -224508078#0 224507345#2"/>
    </vehicle>
</routes>
