<?xml version="1.0" encoding="UTF-8"?>

<!-- generated on 2025-04-29 22:29:41 by Eclipse SUMO netconvert Version 1.22.0
<netconvertConfiguration xmlns:xsi="http://www.w3.org/2001/XMLSchema-instance" xsi:noNamespaceSchemaLocation="http://sumo.dlr.de/xsd/netconvertConfiguration.xsd">

    <input>
        <osm-files value="map.osm.xml"/>
    </input>

    <output>
        <output-file value="map.net.xml"/>
    </output>

    <projection>
        <proj.utm value="true"/>
    </projection>

</netconvertConfiguration>
-->

<net version="1.20" junctionCornerDetail="5" limitTurnSpeed="5.50" xmlns:xsi="http://www.w3.org/2001/XMLSchema-instance" xsi:noNamespaceSchemaLocation="http://sumo.dlr.de/xsd/net_file.xsd">

    <location netOffset="-528268.81,-3948834.19" convBoundary="0.00,0.00,12251.92,3848.12" origBoundary="51.312471,35.677553,51.447843,35.717631" projParameter="+proj=utm +zone=39 +ellps=WGS84 +datum=WGS84 +units=m +no_defs"/>

    <type id="highway.busway" priority="1" numLanes="1" speed="27.78" allow="bus" oneway="1"/>
    <type id="highway.footway" priority="1" numLanes="1" speed="2.78" allow="pedestrian" oneway="1" width="2.00"/>
    <type id="highway.living_street" priority="2" numLanes="1" speed="2.78" disallow="tram rail_urban rail rail_electric rail_fast ship container cable_car subway aircraft wheelchair scooter drone" oneway="0"/>
    <type id="highway.primary" priority="12" numLanes="2" speed="27.78" disallow="tram rail_urban rail rail_electric rail_fast ship container cable_car subway aircraft wheelchair scooter drone" oneway="0"/>
    <type id="highway.residential" priority="3" numLanes="1" speed="13.89" disallow="tram rail_urban rail rail_electric rail_fast ship container cable_car subway aircraft wheelchair scooter drone" oneway="0"/>
    <type id="highway.secondary" priority="11" numLanes="1" speed="27.78" disallow="tram rail_urban rail rail_electric rail_fast ship container cable_car subway aircraft wheelchair scooter drone" oneway="0"/>
    <type id="highway.secondary_link" priority="6" numLanes="1" speed="22.22" disallow="tram rail_urban rail rail_electric rail_fast ship container cable_car subway aircraft wheelchair scooter drone" oneway="0"/>
    <type id="highway.service" priority="1" numLanes="1" speed="5.56" allow="pedestrian delivery bicycle" oneway="0"/>
    <type id="highway.steps" priority="1" numLanes="1" speed="1.39" allow="pedestrian" oneway="1" width="2.00"/>
    <type id="highway.tertiary" priority="10" numLanes="1" speed="22.22" disallow="tram rail_urban rail rail_electric rail_fast ship container cable_car subway aircraft wheelchair scooter drone" oneway="0"/>
    <type id="highway.trunk" priority="13" numLanes="2" speed="27.78" disallow="pedestrian bicycle tram rail_urban rail rail_electric rail_fast ship container cable_car subway aircraft wheelchair scooter drone" oneway="0"/>
    <type id="highway.trunk_link" priority="8" numLanes="1" speed="22.22" disallow="pedestrian bicycle tram rail_urban rail rail_electric rail_fast ship container cable_car subway aircraft wheelchair scooter drone" oneway="0"/>
    <type id="railway.subway" priority="18" numLanes="1" speed="27.78" allow="subway" oneway="1"/>

    <edge id=":10154254003_0" function="internal">
        <lane id=":10154254003_0_0" index="0" allow="delivery" speed="5.05" length="5.15" shape="2437.33,2092.03 2436.65,2090.82 2435.73,2090.14 2434.57,2089.98 2433.17,2090.35"/>
        <lane id=":10154254003_0_1" index="1" allow="delivery" speed="6.15" length="8.13" shape="2437.33,2092.03 2436.13,2089.52 2434.79,2087.93 2433.31,2087.26 2431.69,2087.50"/>
    </edge>
    <edge id=":10154254003_2" function="internal">
        <lane id=":10154254003_2_0" index="0" allow="delivery" speed="5.40" length="5.35" shape="2441.67,2086.27 2440.61,2087.07 2440.04,2088.10 2439.94,2089.38 2440.32,2090.90"/>
    </edge>
    <edge id=":10154254003_3" function="internal">
        <lane id=":10154254003_3_0" index="0" disallow="pedestrian bicycle tram rail_urban rail rail_electric rail_fast ship container cable_car subway aircraft wheelchair scooter drone" speed="8.33" length="9.41" shape="2441.67,2086.27 2439.19,2087.58 2437.49,2088.45 2435.75,2089.26 2433.17,2090.35"/>
        <lane id=":10154254003_3_1" index="1" disallow="pedestrian bicycle tram rail_urban rail rail_electric rail_fast ship container cable_car subway aircraft wheelchair scooter drone" speed="8.33" length="9.41" shape="2440.18,2083.44 2437.71,2084.74 2436.00,2085.61 2434.26,2086.41 2431.69,2087.50"/>
        <lane id=":10154254003_3_2" index="2" disallow="pedestrian bicycle tram rail_urban rail rail_electric rail_fast ship container cable_car subway aircraft wheelchair scooter drone" speed="8.33" length="9.41" shape="2438.69,2080.60 2436.22,2081.90 2434.51,2082.77 2432.78,2083.57 2430.20,2084.65"/>
        <lane id=":10154254003_3_3" index="3" disallow="pedestrian bicycle tram rail_urban rail rail_electric rail_fast ship container cable_car subway aircraft wheelchair scooter drone" speed="8.33" length="9.41" shape="2437.21,2077.77 2434.73,2079.07 2433.03,2079.93 2431.29,2080.72 2428.72,2081.80"/>
        <lane id=":10154254003_3_4" index="4" disallow="pedestrian bicycle tram rail_urban rail rail_electric rail_fast ship container cable_car subway aircraft wheelchair scooter drone" speed="8.33" length="9.41" shape="2435.72,2074.93 2433.25,2076.23 2431.54,2077.09 2429.80,2077.88 2427.23,2078.96"/>
    </edge>
    <edge id=":10154254012_0" function="internal">
        <lane id=":10154254012_0_0" index="0" allow="pedestrian delivery bicycle" speed="3.65" length="4.67" shape="2433.58,2282.14 2432.92,2283.43 2432.18,2283.92 2431.34,2283.61 2430.40,2282.52"/>
    </edge>
    <edge id=":10154269625_0" function="internal">
        <lane id=":10154269625_0_0" index="0" allow="pedestrian delivery bicycle" speed="9.72" length="9.68" shape="2559.88,2189.03 2563.27,2187.94 2565.82,2186.88 2567.55,2185.85 2568.44,2184.84"/>
    </edge>
    <edge id=":10154269625_1" function="internal">
        <lane id=":10154269625_1_0" index="0" allow="pedestrian delivery bicycle" speed="3.65" length="4.67" shape="2559.88,2189.03 2561.26,2189.46 2561.86,2190.12 2561.70,2191.00 2560.77,2192.10"/>
    </edge>
    <edge id=":10154269625_2" function="internal">
        <lane id=":10154269625_2_0" index="0" allow="pedestrian delivery bicycle" speed="4.66" length="6.41" shape="2563.45,2195.27 2564.10,2193.36 2563.87,2192.19 2562.76,2191.77 2560.77,2192.10"/>
    </edge>
    <edge id=":10154269625_3" function="internal">
        <lane id=":10154269625_3_0" index="0" disallow="tram rail_urban rail rail_electric rail_fast ship container cable_car subway aircraft wheelchair scooter drone" speed="13.89" length="11.56" shape="2563.45,2195.27 2568.44,2184.84"/>
        <lane id=":10154269625_3_1" index="1" disallow="tram rail_urban rail rail_electric rail_fast ship container cable_car subway aircraft wheelchair scooter drone" speed="13.89" length="11.56" shape="2566.34,2196.65 2571.33,2186.22"/>
        <lane id=":10154269625_3_2" index="2" disallow="tram rail_urban rail rail_electric rail_fast ship container cable_car subway aircraft wheelchair scooter drone" speed="13.89" length="11.56" shape="2569.22,2198.03 2574.21,2187.60"/>
    </edge>
    <edge id=":10154269629_0" function="internal">
        <lane id=":10154269629_0_0" index="0" allow="pedestrian delivery bicycle" speed="4.93" length="5.13" shape="2516.34,2351.17 2517.75,2351.35 2518.84,2351.01 2519.60,2350.16 2520.03,2348.80"/>
    </edge>
    <edge id=":10154269629_1" function="internal">
        <lane id=":10154269629_1_0" index="0" allow="pedestrian delivery bicycle" speed="3.65" length="4.67" shape="2516.34,2351.17 2517.28,2352.26 2517.46,2353.13 2516.86,2353.80 2515.49,2354.25"/>
    </edge>
    <edge id=":10154269629_2" function="internal">
        <lane id=":10154269629_2_0" index="0" allow="pedestrian delivery bicycle" speed="5.41" length="5.45" shape="2518.50,2358.11 2518.49,2356.78 2517.98,2355.70 2516.98,2354.85 2515.49,2354.25"/>
    </edge>
    <edge id=":10154269629_3" function="internal">
        <lane id=":10154269629_3_0" index="0" disallow="tram rail_urban rail rail_electric rail_fast ship container cable_car subway aircraft wheelchair scooter drone" speed="13.89" length="9.43" shape="2518.50,2358.11 2520.03,2348.80"/>
        <lane id=":10154269629_3_1" index="1" disallow="tram rail_urban rail rail_electric rail_fast ship container cable_car subway aircraft wheelchair scooter drone" speed="13.89" length="9.43" shape="2521.65,2358.63 2523.19,2349.32"/>
        <lane id=":10154269629_3_2" index="2" disallow="tram rail_urban rail rail_electric rail_fast ship container cable_car subway aircraft wheelchair scooter drone" speed="13.89" length="9.43" shape="2524.81,2359.15 2526.35,2349.84"/>
    </edge>
    <edge id=":10154299340_0" function="internal">
        <lane id=":10154299340_0_0" index="0" allow="bicycle" speed="5.56" length="6.11" shape="1952.11,1961.62 1953.28,1961.29 1954.37,1960.49 1955.35,1959.23 1956.25,1957.51"/>
    </edge>
    <edge id=":10154299340_1" function="internal">
        <lane id=":10154299340_1_0" index="0" allow="pedestrian delivery bicycle" speed="5.56" length="6.71" shape="1952.11,1961.62 1958.78,1960.95"/>
    </edge>
    <edge id=":10154299343_0" function="internal">
        <lane id=":10154299343_0_0" index="0" disallow="pedestrian bicycle tram rail_urban rail rail_electric rail_fast ship container cable_car subway aircraft wheelchair scooter drone" speed="22.22" length="13.61" shape="1956.05,1926.09 1953.33,1923.13 1951.28,1921.29 1949.07,1919.60 1945.89,1917.11"/>
        <lane id=":10154299343_0_1" index="1" disallow="pedestrian bicycle tram rail_urban rail rail_electric rail_fast ship container cable_car subway aircraft wheelchair scooter drone" speed="22.22" length="13.61" shape="1958.11,1923.58 1955.39,1920.62 1953.32,1918.79 1951.10,1917.12 1947.91,1914.63"/>
        <lane id=":10154299343_0_2" index="2" disallow="pedestrian bicycle tram rail_urban rail rail_electric rail_fast ship container cable_car subway aircraft wheelchair scooter drone" speed="22.22" length="13.61" shape="1960.17,1921.07 1957.44,1918.12 1955.36,1916.30 1953.13,1914.64 1949.94,1912.16"/>
    </edge>
    <edge id=":10736004819_0" function="internal">
        <lane id=":10736004819_0_0" index="0" allow="bicycle" speed="5.56" length="6.98" shape="2051.69,2072.74 2053.74,2073.88 2055.51,2074.61 2057.00,2074.92 2058.20,2074.83"/>
    </edge>
    <edge id=":10736004819_1" function="internal">
        <lane id=":10736004819_1_0" index="0" allow="bicycle" speed="5.56" length="7.41" shape="2051.12,2076.77 2053.28,2076.65 2054.71,2076.21 2056.12,2075.57 2058.20,2074.83"/>
    </edge>
    <edge id=":10736004820_0" function="internal">
        <lane id=":10736004820_0_0" index="0" allow="bicycle" speed="5.56" length="5.71" shape="2012.77,2051.07 2017.13,2047.39"/>
    </edge>
    <edge id=":10736004820_1" function="internal">
        <lane id=":10736004820_1_0" index="0" allow="bicycle" speed="5.56" length="5.04" shape="2012.77,2051.07 2013.63,2050.63 2014.70,2050.60 2015.98,2050.96 2017.46,2051.73"/>
    </edge>
    <edge id=":10736004821_0" function="internal">
        <lane id=":10736004821_0_0" index="0" allow="bicycle" speed="5.56" length="6.37" shape="2017.32,2047.23 2022.20,2043.13"/>
    </edge>
    <edge id=":10736004821_1" function="internal">
        <lane id=":10736004821_1_0" index="0" allow="bicycle" speed="5.56" length="5.59" shape="2017.32,2047.23 2018.41,2046.61 2019.64,2046.44 2021.01,2046.73 2022.52,2047.47"/>
    </edge>
    <edge id=":10736004827_0" function="internal">
        <lane id=":10736004827_0_0" index="0" disallow="pedestrian bicycle tram rail_urban rail rail_electric rail_fast ship container cable_car subway aircraft wheelchair scooter drone" speed="27.78" length="6.20" shape="2176.82,2111.82 2171.47,2108.70"/>
        <lane id=":10736004827_0_1" index="1" disallow="pedestrian bicycle tram rail_urban rail rail_electric rail_fast ship container cable_car subway aircraft wheelchair scooter drone" speed="27.78" length="6.20" shape="2178.43,2109.06 2173.08,2105.93"/>
        <lane id=":10736004827_0_2" index="2" disallow="pedestrian bicycle tram rail_urban rail rail_electric rail_fast ship container cable_car subway aircraft wheelchair scooter drone" speed="27.78" length="6.20" shape="2180.05,2106.29 2174.69,2103.17"/>
        <lane id=":10736004827_0_3" index="3" disallow="pedestrian bicycle tram rail_urban rail rail_electric rail_fast ship container cable_car subway aircraft wheelchair scooter drone" speed="27.78" length="6.20" shape="2181.66,2103.53 2176.30,2100.41"/>
    </edge>
    <edge id=":10736004833_0" function="internal">
        <lane id=":10736004833_0_0" index="0" allow="bicycle" speed="5.56" length="6.09" shape="2071.69,2070.13 2073.00,2071.29 2073.57,2072.52 2074.17,2073.66 2075.60,2074.58"/>
    </edge>
    <edge id=":10736004833_1" function="internal">
        <lane id=":10736004833_1_0" index="0" allow="bicycle" speed="5.56" length="6.39" shape="2069.34,2073.49 2071.23,2073.62 2072.54,2073.73 2073.81,2073.99 2075.60,2074.58"/>
    </edge>
    <edge id=":10736004834_0" function="internal">
        <lane id=":10736004834_0_0" index="0" allow="bicycle" speed="5.56" length="7.00" shape="2059.95,2070.39 2061.68,2071.55 2062.90,2072.38 2064.20,2072.92 2066.21,2073.23"/>
    </edge>
    <edge id=":10736004834_1" function="internal">
        <lane id=":10736004834_1_0" index="0" allow="bicycle" speed="5.56" length="7.01" shape="2059.39,2074.49 2061.38,2073.85 2062.76,2073.39 2064.16,2073.17 2066.21,2073.23"/>
    </edge>
    <edge id=":10736004838_0" function="internal">
        <lane id=":10736004838_0_0" index="0" allow="bicycle" speed="4.53" length="5.44" shape="2009.13,2049.29 2009.60,2051.01 2010.34,2051.91 2011.34,2051.97 2012.61,2051.20"/>
    </edge>
    <edge id=":10736004838_1" function="internal">
        <lane id=":10736004838_1_0" index="0" allow="bicycle" speed="5.56" length="7.46" shape="2009.13,2049.29 2009.48,2051.47 2009.89,2052.97 2010.69,2054.26 2012.19,2055.83"/>
    </edge>
    <edge id=":10736004839_0" function="internal">
        <lane id=":10736004839_0_0" index="0" allow="bicycle" speed="5.56" length="6.57" shape="2009.01,2035.24 2008.24,2036.20 2007.79,2037.55 2007.67,2039.30 2007.88,2041.45"/>
    </edge>
    <edge id=":10736004839_1" function="internal">
        <lane id=":10736004839_1_0" index="0" allow="bus bicycle" speed="5.56" length="7.16" shape="2009.01,2035.24 2007.38,2036.60 2006.32,2037.59 2005.32,2038.65 2003.87,2040.20"/>
    </edge>
    <edge id=":10869257523_0" function="internal">
        <lane id=":10869257523_0_0" index="0" disallow="pedestrian bicycle tram rail_urban rail rail_electric rail_fast ship container cable_car subway aircraft wheelchair scooter drone" speed="22.22" length="5.00" shape="2313.94,2151.97 2311.20,2156.16"/>
        <lane id=":10869257523_0_1" index="1" disallow="pedestrian bicycle tram rail_urban rail rail_electric rail_fast ship container cable_car subway aircraft wheelchair scooter drone" speed="22.22" length="5.00" shape="2311.26,2150.22 2308.52,2154.40"/>
        <lane id=":10869257523_0_2" index="2" disallow="pedestrian bicycle tram rail_urban rail rail_electric rail_fast ship container cable_car subway aircraft wheelchair scooter drone" speed="22.22" length="5.00" shape="2308.59,2148.46 2305.85,2152.64"/>
    </edge>
    <edge id=":10869257527_0" function="internal">
        <lane id=":10869257527_0_0" index="0" allow="bus bicycle" speed="5.56" length="5.00" shape="2254.60,2262.16 2255.80,2257.31"/>
    </edge>
    <edge id=":10869257530_0" function="internal">
        <lane id=":10869257530_0_0" index="0" allow="bus bicycle" speed="5.56" length="5.01" shape="2214.65,2269.94 2218.61,2273.01"/>
    </edge>
    <edge id=":10959699609_0" function="internal">
        <lane id=":10959699609_0_0" index="0" allow="emergency authority pedestrian bus bicycle" speed="5.56" length="3.48" shape="2276.35,2135.32 2276.73,2131.87"/>
    </edge>
    <edge id=":1556721829_0" function="internal">
        <lane id=":1556721829_0_0" index="0" disallow="tram rail_urban rail rail_electric rail_fast ship container cable_car subway aircraft wheelchair scooter drone" speed="13.89" length="7.17" shape="1976.00,1741.09 1977.81,1742.21 1979.09,1742.90 1980.41,1743.53 1982.34,1744.44"/>
    </edge>
    <edge id=":1556721829_1" function="internal">
        <lane id=":1556721829_1_0" index="0" disallow="tram rail_urban rail rail_electric rail_fast ship container cable_car subway aircraft wheelchair scooter drone" speed="7.98" length="6.95" shape="1976.00,1741.09 1977.09,1742.06 1977.93,1743.39 1978.53,1745.10 1978.87,1747.18"/>
    </edge>
    <edge id=":1556806629_0" function="internal">
        <lane id=":1556806629_0_0" index="0" allow="bicycle" speed="5.06" length="5.04" shape="1852.34,2251.55 1852.14,2250.17 1851.55,2249.19 1850.58,2248.61 1849.22,2248.41"/>
    </edge>
    <edge id=":1556806629_1" function="internal">
        <lane id=":1556806629_1_0" index="0" allow="bicycle" speed="3.65" length="4.67" shape="1852.34,2251.55 1853.13,2250.34 1853.93,2249.94 1854.73,2250.33 1855.54,2251.53"/>
    </edge>
    <edge id=":1556806629_2" function="internal">
        <lane id=":1556806629_2_0" index="0" allow="bicycle" speed="5.03" length="5.02" shape="1858.64,2248.43 1857.28,2248.61 1856.31,2249.19 1855.73,2250.16 1855.54,2251.53"/>
    </edge>
    <edge id=":1556806629_3" function="internal">
        <lane id=":1556806629_3_0" index="0" allow="bus bicycle" speed="5.56" length="9.42" shape="1858.64,2248.43 1849.22,2248.41"/>
    </edge>
    <edge id=":1556806656_0" function="internal">
        <lane id=":1556806656_0_0" index="0" allow="bicycle" speed="3.65" length="4.67" shape="1860.55,2454.52 1860.19,2455.92 1859.57,2456.56 1858.68,2456.45 1857.53,2455.59"/>
    </edge>
    <edge id=":1556806760_0" function="internal">
        <lane id=":1556806760_0_0" index="0" allow="bus bicycle" speed="5.56" length="9.13" shape="1964.85,2254.86 1964.49,2252.37 1963.43,2250.58 1961.68,2249.50 1959.24,2249.13"/>
    </edge>
    <edge id=":1556806760_1" function="internal">
        <lane id=":1556806760_1_0" index="0" allow="bus bicycle" speed="3.65" length="4.67" shape="1964.85,2254.86 1965.65,2253.66 1966.44,2253.25 1967.25,2253.65 1968.05,2254.85"/>
    </edge>
    <edge id=":1556806760_2" function="internal">
        <lane id=":1556806760_2_0" index="0" allow="bus bicycle" speed="5.56" length="9.03" shape="1973.66,2249.31 1971.20,2249.62 1969.44,2250.64 1968.39,2252.39 1968.05,2254.85"/>
    </edge>
    <edge id=":1556806760_3" function="internal">
        <lane id=":1556806760_3_0" index="0" allow="bus bicycle" speed="5.56" length="14.42" shape="1973.66,2249.31 1959.24,2249.13"/>
    </edge>
    <edge id=":1556806807_0" function="internal">
        <lane id=":1556806807_0_0" index="0" allow="bus bicycle" speed="5.56" length="14.40" shape="1936.34,2441.45 1921.94,2441.30"/>
    </edge>
    <edge id=":1556806807_1" function="internal">
        <lane id=":1556806807_1_0" index="0" allow="bus bicycle" speed="5.56" length="14.20" shape="1936.34,2441.45 1932.49,2440.86 1929.76,2439.18 1928.14,2436.41 1927.64,2432.54"/>
    </edge>
    <edge id=":1556806807_2" function="internal">
        <lane id=":1556806807_2_0" index="0" allow="bus bicycle" speed="3.65" length="4.67" shape="1936.34,2441.45 1935.14,2440.63 1934.75,2439.83 1935.16,2439.03 1936.37,2438.25"/>
    </edge>
    <edge id=":1556806807_3" function="internal">
        <lane id=":1556806807_3_0" index="0" allow="bus bicycle" speed="5.56" length="9.03" shape="1930.84,2432.59 1931.16,2435.04 1932.18,2436.80 1933.92,2437.87 1936.37,2438.25"/>
    </edge>
    <edge id=":1556806807_4" function="internal">
        <lane id=":1556806807_4_0" index="0" allow="bus bicycle" speed="5.56" length="14.20" shape="1930.84,2432.59 1930.24,2436.43 1928.55,2439.17 1925.79,2440.79 1921.94,2441.30"/>
    </edge>
    <edge id=":1556806807_5" function="internal">
        <lane id=":1556806807_5_0" index="0" allow="bus bicycle" speed="3.65" length="4.67" shape="1930.84,2432.59 1930.02,2433.77 1929.22,2434.16 1928.42,2433.75 1927.64,2432.54"/>
    </edge>
    <edge id=":1556806807_6" function="internal">
        <lane id=":1556806807_6_0" index="0" allow="bus bicycle" speed="5.56" length="9.05" shape="1921.97,2438.10 1924.42,2437.77 1926.18,2436.74 1927.26,2435.00 1927.64,2432.54"/>
    </edge>
    <edge id=":1556806807_7" function="internal">
        <lane id=":1556806807_7_0" index="0" allow="bus bicycle" speed="5.56" length="14.40" shape="1921.97,2438.10 1936.37,2438.25"/>
    </edge>
    <edge id=":1556806807_8" function="internal">
        <lane id=":1556806807_8_0" index="0" allow="bus bicycle" speed="3.65" length="4.67" shape="1921.97,2438.10 1923.16,2438.91 1923.55,2439.71 1923.14,2440.51 1921.94,2441.30"/>
    </edge>
    <edge id=":1556806808_0" function="internal">
        <lane id=":1556806808_0_0" index="0" allow="bus bicycle" speed="5.56" length="9.03" shape="2006.88,2249.93 2004.42,2250.24 2002.65,2251.25 2001.59,2252.99 2001.22,2255.44"/>
    </edge>
    <edge id=":1556806808_1" function="internal">
        <lane id=":1556806808_1_0" index="0" allow="bus bicycle" speed="5.56" length="14.40" shape="2006.88,2249.93 1992.48,2249.66"/>
    </edge>
    <edge id=":1556806808_2" function="internal">
        <lane id=":1556806808_2_0" index="0" allow="bus bicycle" speed="5.56" length="9.09" shape="1998.02,2255.42 1997.69,2252.94 1996.65,2251.15 1994.91,2250.06 1992.48,2249.66"/>
    </edge>
    <edge id=":1556806808_3" function="internal">
        <lane id=":1556806808_3_0" index="0" allow="bus bicycle" speed="3.65" length="4.67" shape="1998.02,2255.42 1998.83,2254.23 1999.63,2253.83 2000.43,2254.24 2001.22,2255.44"/>
    </edge>
    <edge id=":1556806877_0" function="internal">
        <lane id=":1556806877_0_0" index="0" allow="bus bicycle" speed="5.56" length="14.40" shape="2005.47,2442.18 1991.07,2442.02"/>
    </edge>
    <edge id=":1556806877_1" function="internal">
        <lane id=":1556806877_1_0" index="0" allow="bus bicycle" speed="5.56" length="14.20" shape="2005.47,2442.18 2001.63,2441.59 1998.90,2439.91 1997.27,2437.13 1996.75,2433.27"/>
    </edge>
    <edge id=":1556806877_2" function="internal">
        <lane id=":1556806877_2_0" index="0" allow="bus bicycle" speed="3.65" length="4.67" shape="2005.47,2442.18 2004.28,2441.37 2003.89,2440.56 2004.30,2439.77 2005.50,2438.98"/>
    </edge>
    <edge id=":1556806877_3" function="internal">
        <lane id=":1556806877_3_0" index="0" allow="bus bicycle" speed="5.56" length="9.05" shape="1999.95,2433.30 2000.28,2435.76 2001.32,2437.53 2003.06,2438.60 2005.50,2438.98"/>
    </edge>
    <edge id=":1556806877_4" function="internal">
        <lane id=":1556806877_4_0" index="0" allow="bus bicycle" speed="5.56" length="14.21" shape="1999.95,2433.30 1999.37,2437.15 1997.70,2439.89 1994.93,2441.51 1991.07,2442.02"/>
    </edge>
    <edge id=":1556806877_5" function="internal">
        <lane id=":1556806877_5_0" index="0" allow="bus bicycle" speed="3.65" length="4.67" shape="1999.95,2433.30 1999.14,2434.49 1998.34,2434.88 1997.54,2434.48 1996.75,2433.27"/>
    </edge>
    <edge id=":1556806877_6" function="internal">
        <lane id=":1556806877_6_0" index="0" allow="bus bicycle" speed="5.56" length="9.03" shape="1991.11,2438.82 1993.56,2438.49 1995.32,2437.46 1996.38,2435.72 1996.75,2433.27"/>
    </edge>
    <edge id=":1556806877_7" function="internal">
        <lane id=":1556806877_7_0" index="0" allow="bus bicycle" speed="5.56" length="14.40" shape="1991.11,2438.82 2005.50,2438.98"/>
    </edge>
    <edge id=":1556806877_8" function="internal">
        <lane id=":1556806877_8_0" index="0" allow="bus bicycle" speed="3.65" length="4.67" shape="1991.11,2438.82 1992.30,2439.63 1992.69,2440.43 1992.28,2441.23 1991.07,2442.02"/>
    </edge>
    <edge id=":1556806961_0" function="internal">
        <lane id=":1556806961_0_0" index="0" allow="bus bicycle" speed="3.65" length="4.67" shape="2125.68,2621.13 2124.63,2622.13 2123.76,2622.34 2123.07,2621.77 2122.56,2620.43"/>
    </edge>
    <edge id=":1556807015_0" function="internal">
        <lane id=":1556807015_0_0" index="0" allow="bicycle" speed="5.01" length="8.09" shape="2120.80,2291.79 2118.60,2289.70 2117.03,2289.01 2116.08,2289.73 2115.76,2291.85"/>
    </edge>
    <edge id=":1556807015_1" function="internal">
        <lane id=":1556807015_1_0" index="0" allow="bicycle" speed="5.56" length="12.67" shape="2120.80,2291.79 2118.31,2289.48 2115.90,2287.70 2113.64,2285.82 2111.59,2283.19"/>
    </edge>
    <edge id=":1556807015_2" function="internal">
        <lane id=":1556807015_2_0" index="0" allow="bicycle" speed="5.56" length="10.63" shape="2114.34,2281.55 2115.64,2284.27 2116.02,2286.44 2115.90,2288.74 2115.76,2291.85"/>
    </edge>
    <edge id=":1556807015_3" function="internal">
        <lane id=":1556807015_3_0" index="0" allow="bus bicycle" speed="3.65" length="4.67" shape="2114.34,2281.55 2114.27,2282.99 2113.78,2283.74 2112.89,2283.81 2111.59,2283.19"/>
    </edge>
    <edge id=":1556807015_4" function="internal">
        <lane id=":1556807015_4_0" index="0" allow="bicycle" speed="5.56" length="8.93" shape="2112.56,2291.84 2112.73,2289.18 2112.92,2287.28 2112.68,2285.51 2111.59,2283.19"/>
    </edge>
    <edge id=":1556807015_5" function="internal">
        <lane id=":1556807015_5_0" index="0" allow="bicycle" speed="3.65" length="4.67" shape="2112.56,2291.84 2113.36,2290.64 2114.17,2290.25 2114.96,2290.65 2115.76,2291.85"/>
    </edge>
    <edge id=":1556807101_0" function="internal">
        <lane id=":1556807101_0_0" index="0" allow="bus bicycle" speed="5.56" length="14.41" shape="2037.78,2442.52 2023.38,2442.37"/>
    </edge>
    <edge id=":1556807101_1" function="internal">
        <lane id=":1556807101_1_0" index="0" allow="bus bicycle" speed="5.56" length="14.22" shape="2037.78,2442.52 2033.93,2441.93 2031.20,2440.25 2029.58,2437.47 2029.09,2433.60"/>
    </edge>
    <edge id=":1556807101_2" function="internal">
        <lane id=":1556807101_2_0" index="0" allow="bus bicycle" speed="3.65" length="4.67" shape="2037.78,2442.52 2036.59,2441.71 2036.20,2440.90 2036.61,2440.11 2037.81,2439.32"/>
    </edge>
    <edge id=":1556807101_3" function="internal">
        <lane id=":1556807101_3_0" index="0" allow="bus bicycle" speed="5.56" length="9.03" shape="2032.29,2433.66 2032.60,2436.11 2033.63,2437.88 2035.36,2438.94 2037.81,2439.32"/>
    </edge>
    <edge id=":1556807101_4" function="internal">
        <lane id=":1556807101_4_0" index="0" allow="bus bicycle" speed="5.56" length="14.20" shape="2032.29,2433.66 2031.68,2437.50 2029.99,2440.24 2027.22,2441.86 2023.38,2442.37"/>
    </edge>
    <edge id=":1556807101_5" function="internal">
        <lane id=":1556807101_5_0" index="0" allow="bus bicycle" speed="3.65" length="4.67" shape="2032.29,2433.66 2031.47,2434.84 2030.67,2435.23 2029.87,2434.82 2029.09,2433.60"/>
    </edge>
    <edge id=":1556807101_6" function="internal">
        <lane id=":1556807101_6_0" index="0" allow="bus bicycle" speed="5.56" length="9.06" shape="2023.41,2439.17 2025.86,2438.85 2027.63,2437.81 2028.70,2436.06 2029.09,2433.60"/>
    </edge>
    <edge id=":1556807101_7" function="internal">
        <lane id=":1556807101_7_0" index="0" allow="bus bicycle" speed="5.56" length="14.40" shape="2023.41,2439.17 2037.81,2439.32"/>
    </edge>
    <edge id=":1556807101_8" function="internal">
        <lane id=":1556807101_8_0" index="0" allow="bus bicycle" speed="3.65" length="4.67" shape="2023.41,2439.17 2024.60,2439.99 2024.99,2440.79 2024.59,2441.59 2023.38,2442.37"/>
    </edge>
    <edge id=":1556807194_0" function="internal">
        <lane id=":1556807194_0_0" index="0" allow="bicycle" speed="3.65" length="4.67" shape="2110.76,2437.95 2109.55,2438.73 2108.65,2438.78 2108.08,2438.10 2107.83,2436.68"/>
    </edge>
    <edge id=":1556807230_0" function="internal">
        <lane id=":1556807230_0_0" index="0" allow="bus bicycle" speed="5.56" length="14.40" shape="1974.61,2441.84 1960.22,2441.69"/>
    </edge>
    <edge id=":1556807230_1" function="internal">
        <lane id=":1556807230_1_0" index="0" allow="bus bicycle" speed="5.56" length="14.21" shape="1974.61,2441.84 1970.79,2441.24 1968.06,2439.56 1966.41,2436.78 1965.84,2432.92"/>
    </edge>
    <edge id=":1556807230_2" function="internal">
        <lane id=":1556807230_2_0" index="0" allow="bus bicycle" speed="3.65" length="4.67" shape="1974.61,2441.84 1973.42,2441.02 1973.03,2440.22 1973.44,2439.42 1974.65,2438.64"/>
    </edge>
    <edge id=":1556807230_3" function="internal">
        <lane id=":1556807230_3_0" index="0" allow="bus bicycle" speed="5.56" length="9.11" shape="1969.04,2432.90 1969.40,2435.39 1970.46,2437.17 1972.21,2438.26 1974.65,2438.64"/>
    </edge>
    <edge id=":1556807230_4" function="internal">
        <lane id=":1556807230_4_0" index="0" allow="bus bicycle" speed="5.56" length="14.25" shape="1969.04,2432.90 1968.51,2436.78 1966.86,2439.53 1964.10,2441.17 1960.22,2441.69"/>
    </edge>
    <edge id=":1556807230_5" function="internal">
        <lane id=":1556807230_5_0" index="0" allow="bus bicycle" speed="3.65" length="4.67" shape="1969.04,2432.90 1968.25,2434.10 1967.45,2434.51 1966.65,2434.11 1965.84,2432.92"/>
    </edge>
    <edge id=":1556807230_6" function="internal">
        <lane id=":1556807230_6_0" index="0" allow="bus bicycle" speed="5.56" length="9.03" shape="1960.25,2438.49 1962.71,2438.16 1964.46,2437.12 1965.50,2435.37 1965.84,2432.92"/>
    </edge>
    <edge id=":1556807230_7" function="internal">
        <lane id=":1556807230_7_0" index="0" allow="bus bicycle" speed="5.56" length="14.40" shape="1960.25,2438.49 1974.65,2438.64"/>
    </edge>
    <edge id=":1556807230_8" function="internal">