<?xml version="1.0" encoding="UTF-8"?>

<!-- generated on 2025-02-16 16:54:56.860127 by randomTrips.py UNKNOWN
<configuration>
    <net-file value="map.net.xml"/>
    <route-file value="map.rou.xml"/>
    <end value="200.0"/>
    <insertion-density value="30.0"/>
</configuration>
-->

<routes xmlns:xsi="http://www.w3.org/2001/XMLSchema-instance" xsi:noNamespaceSchemaLocation="http://sumo.dlr.de/xsd/routes_file.xsd">
    <trip id="0" depart="0.00" from="373885443#7" to="-224056136#5"/>
    <trip id="1" depart="4.04" from="-374530650#1" to="-374528352#0"/>
    <trip id="2" depart="8.08" from="374528353#2" to="374528349#1"/>
    <trip id="3" depart="12.12" from="604235352" to="-224508078#8"/>
    <trip id="4" depart="16.16" from="-914536118" to="-224056136#7"/>
    <trip id="5" depart="20.20" from="-374528351#3" to="224506572#1"/>
    <trip id="6" depart="24.24" from="-224056136#5" to="-374528350#2"/>
    <trip id="7" depart="28.29" from="374528332#2" to="224508078#3"/>
    <trip id="8" depart="32.33" from="-374528351#4" to="31731792#1"/>
    <trip id="9" depart="36.37" from="604219948#0" to="-1047615534"/>
    <trip id="10" depart="40.41" from="604219942" to="374528351#2"/>
    <trip id="11" depart="44.45" from="-604219973" to="-374528335#1"/>
    <trip id="12" depart="48.49" from="914659522" to="-604219975#2"/>
    <trip id="13" depart="52.53" from="-224508078#9" to="-224508438#2"/>
    <trip id="14" depart="56.57" from="604219975#3" to="373885436#2"/>
    <trip id="15" depart="60.61" from="604219945" to="374528358"/>
    <trip id="16" depart="64.65" from="224507345#0" to="914659526#1"/>
    <trip id="17" depart="68.69" from="-604234426#0" to="224508078#5"/>
    <trip id="18" depart="72.73" from="604219970#0" to="373885443#5"/>
    <trip id="19" depart="76.77" from="604221276" to="31676036"/>
    <trip id="20" depart="80.82" from="374528351#0" to="-224506572#5"/>
    <trip id="21" depart="84.86" from="-374528351#7" to="-374530707"/>
    <trip id="22" depart="88.90" from="-224508078#3" to="-374528353#0"/>
    <trip id="23" depart="92.94" from="-224508438#2" to="-374530661#2"/>
    <trip id="24" depart="96.98" from="373885443#5" to="-604234425#1"/>
    <trip id="25" depart="101.02" from="-604221280#2" to="-374528351#2"/>
    <trip id="26" depart="105.06" from="-374528362#2" to="914573025#2"/>
    <trip id="27" depart="109.10" from="374528332#1" to="373885443#1"/>
    <trip id="28" depart="113.14" from="-374528340#1" to="374528358"/>
    <trip id="29" depart="117.18" from="-374528335#3" to="-604235339#0"/>
    <trip id="30" depart="121.22" from="921334357#3" to="374528335#1"/>
    <trip id="31" depart="125.26" from="224508078#3" to="374528350#0"/>
    <trip id="32" depart="129.30" from="604219975#1" to="374530707"/>
    <trip id="33" depart="133.34" from="-374528351#7" to="-224506572#0"/>
    <trip id="34" depart="137.39" from="-604219952" to="-374530650#0"/>
    <trip id="35" depart="141.43" from="-374528351#0" to="914573027#1"/>
    <trip id="36" depart="145.47" from="604234425#2" to="-604219953#0"/>
    <trip id="37" depart="149.51" from="374528335#1" to="-604236966"/>
    <trip id="38" depart="153.55" from="914536118" to="220336641#0"/>
    <trip id="39" depart="157.59" from="-374528362#1" to="-374528361#1"/>
    <trip id="40" depart="161.63" from="224508078#4" to="-374528362#2"/>
    <trip id="41" depart="165.67" from="224508677#1" to="604236955"/>
    <trip id="42" depart="169.71" from="-604235358#0" to="-374528351#6"/>
    <trip id="43" depart="173.75" from="921334357#6" to="224506572#3"/>
    <trip id="44" depart="177.79" from="-224508078#8" to="-224506572#6"/>
    <trip id="45" depart="181.83" from="-31731792#2" to="373885443#9"/>
    <trip id="46" depart="185.87" from="604215994#1" to="-914573024"/>
    <trip id="47" depart="189.92" from="-224507345#3" to="-604235339#1"/>
    <trip id="48" depart="193.96" from="921334357#6" to="224507345#2"/>
    <trip id="49" depart="198.00" from="914659526#1" to="604221280#2"/>
</routes>
