<?xml version="1.0" encoding="UTF-8"?>

<!-- generated on 2025-06-06 00:43:32.099465 by randomTrips.py UNKNOWN
<configuration>
    <net-file value="map.net.xml"/>
    <route-file value="map.rou.xml"/>
    <end value="600.0"/>
    <insertion-density value="60.0"/>
</configuration>
-->

<routes xmlns:xsi="http://www.w3.org/2001/XMLSchema-instance" xsi:noNamespaceSchemaLocation="http://sumo.dlr.de/xsd/routes_file.xsd">
    <trip id="0" depart="0.00" from="4316293#5" to="-182328360"/>
    <trip id="1" depart="1.06" from="-74487374" to="-491385092#4"/>
    <trip id="2" depart="2.12" from="478136565#1" to="478131326#2"/>
    <trip id="3" depart="3.18" from="772827200" to="-204881558#11"/>
    <trip id="4" depart="4.24" from="176164233#9" to="-191870912#1"/>
    <trip id="5" depart="5.30" from="-491385092#4" to="210304200#1"/>
    <trip id="6" depart="6.36" from="-191713406" to="-491361609"/>
    <trip id="7" depart="7.43" from="4316765#2" to="374343869#2"/>
    <trip id="8" depart="8.49" from="-491385097#0" to="4316293#4"/>
    <trip id="9" depart="9.55" from="552377544#8" to="-1230821445#0"/>
    <trip id="10" depart="10.61" from="552377544#6" to="491358693#1"/>
    <trip id="11" depart="11.67" from="1072277084#2" to="-478131326#0"/>
    <trip id="12" depart="12.73" from="884218506" to="142254254#1"/>
    <trip id="13" depart="13.79" from="-205617224#0" to="-204881558#7"/>
    <trip id="14" depart="14.85" from="591383994#9" to="441725105"/>
    <trip id="15" depart="15.91" from="552377544#7" to="491385092#1"/>
    <trip id="16" depart="16.97" from="204881558#11" to="892676284#10"/>
    <trip id="17" depart="18.03" from="140039130#2" to="422613722"/>
    <trip id="18" depart="19.09" from="576561276#3" to="444512772#0"/>
    <trip id="19" depart="20.15" from="708422843#1" to="4293070#7"/>
    <trip id="20" depart="21.21" from="469770778#4" to="-191871519#0"/>
    <trip id="21" depart="22.28" from="-583986602#1" to="1062579400"/>
    <trip id="22" depart="23.34" from="-204881558#12" to="-708422840"/>
    <trip id="23" depart="24.40" from="-210372288" to="-879161322#4"/>
    <trip id="24" depart="25.46" from="4316293#3" to="176164233#4"/>
    <trip id="25" depart="26.52" from="140039129#0" to="-491375094"/>
    <trip id="26" depart="27.58" from="-72859085" to="884216801#2"/>
    <trip id="27" depart="28.64" from="4316765#0" to="444161902"/>
    <trip id="28" depart="29.70" from="-478136564#1" to="491385092#0"/>
    <trip id="29" depart="30.76" from="-478131326#2" to="181728253#4"/>
    <trip id="30" depart="31.82" from="892676284#9" to="459910929#0"/>
    <trip id="31" depart="32.88" from="205617224#2" to="478136564#1"/>
    <trip id="32" depart="33.94" from="591383994#6" to="576561276#2"/>
    <trip id="33" depart="35.00" from="-583986602#2" to="-191870912#3"/>
    <trip id="34" depart="36.06" from="-879161322#0" to="-833164210"/>
    <trip id="35" depart="37.13" from="-491385089#1" to="884216804"/>
    <trip id="36" depart="38.19" from="72859071#0" to="1231902851#1"/>
    <trip id="37" depart="39.25" from="444527279" to="191870725#0"/>
    <trip id="38" depart="40.31" from="878607368" to="195008564#2"/>
    <trip id="39" depart="41.37" from="-72859082" to="-72859070#2"/>
    <trip id="40" depart="42.43" from="210304194#0" to="-833161572#2"/>
    <trip id="41" depart="43.49" from="36471786#0" to="833161572#1"/>
    <trip id="42" depart="44.55" from="176164231#4" to="-491385092#1"/>
    <trip id="43" depart="45.61" from="946205671#3" to="210304201#1"/>
    <trip id="44" depart="46.67" from="-204881558#9" to="-191871519#0"/>
    <trip id="45" depart="47.73" from="-210372295#1" to="444859728"/>
    <trip id="46" depart="48.79" from="491823943" to="191870916#0"/>
    <trip id="47" depart="49.85" from="-192251097#1" to="181734847#0"/>
    <trip id="48" depart="50.92" from="946205671#2" to="218990841"/>
    <trip id="49" depart="51.98" from="892676282#1" to="769675541"/>
    <trip id="50" depart="53.04" from="-1230821446#2" to="491374361#1"/>
    <trip id="51" depart="54.10" from="459910463#1" to="36471786#2"/>
    <trip id="52" depart="55.16" from="-72859085" to="459910929#1"/>
    <trip id="53" depart="56.22" from="-210372296#0" to="191871519#1"/>
    <trip id="54" depart="57.28" from="191870725#6" to="884218505"/>
    <trip id="55" depart="58.34" from="72859071#0" to="-833161572#3"/>
    <trip id="56" depart="59.40" from="192131981" to="-491358677"/>
    <trip id="57" depart="60.46" from="872187796" to="772827389#1"/>
    <trip id="58" depart="61.52" from="-807534463" to="459910463#2"/>
    <trip id="59" depart="62.58" from="4293070#12" to="-478131320#0"/>
    <trip id="60" depart="63.64" from="491361609" to="36471786#4"/>
    <trip id="61" depart="64.70" from="491385089#1" to="25776902#0"/>
    <trip id="62" depart="65.77" from="-1004930992" to="140039129#2"/>
    <trip id="63" depart="66.83" from="-142252343#1" to="882674433#1"/>
    <trip id="64" depart="67.89" from="72859086" to="72859070#0"/>
    <trip id="65" depart="68.95" from="-833161572#4" to="-192131977#1"/>
    <trip id="66" depart="70.01" from="72859078" to="884218503#0"/>
    <trip id="67" depart="71.07" from="-204881558#5" to="204881558#7"/>
    <trip id="68" depart="72.13" from="-195008564#2" to="552377544#9"/>
    <trip id="69" depart="73.19" from="491363276" to="-374343869#4"/>
    <trip id="70" depart="74.25" from="191870916#0" to="422610123"/>
    <trip id="71" depart="75.31" from="-72859082" to="772827390"/>
    <trip id="72" depart="76.37" from="181728250#0" to="-491385089#0"/>
    <trip id="73" depart="77.43" from="204881558#2" to="491385092#1"/>
    <trip id="74" depart="78.49" from="-491374352#0" to="1230821446#2"/>
    <trip id="75" depart="79.56" from="946205671#1" to="465869543#2"/>
    <trip id="76" depart="80.62" from="182013290" to="210372289"/>
    <trip id="77" depart="81.68" from="-36471786#4" to="-491385097#0"/>
    <trip id="78" depart="82.74" from="1072277084#1" to="4316293#4"/>
    <trip id="79" depart="83.80" from="-583986602#2" to="-491385092#1"/>
    <trip id="80" depart="84.86" from="-195008564#3" to="450104903#0"/>
    <trip id="81" depart="85.92" from="-583986602#2" to="833164211"/>
    <trip id="82" depart="86.98" from="708422840" to="-192251097#0"/>
    <trip id="83" depart="88.04" from="-72843711#1" to="475518379"/>
    <trip id="84" depart="89.10" from="-491385092#1" to="-444527279"/>
    <trip id="85" depart="90.16" from="884216800" to="4293070#3"/>
    <trip id="86" depart="91.22" from="191870915#0" to="591383994#1"/>
    <trip id="87" depart="92.28" from="552377544#7" to="-491359998#0"/>
    <trip id="88" depart="93.34" from="-210304119" to="191871516"/>
    <trip id="89" depart="94.41" from="181728253#0" to="203193282"/>
    <trip id="90" depart="95.47" from="478136563#0" to="478131324"/>
    <trip id="91" depart="96.53" from="892676284#5" to="-204881558#8"/>
    <trip id="92" depart="97.59" from="176164231#6" to="175770931#1"/>
    <trip id="93" depart="98.65" from="708422843#1" to="-72859070#3"/>
    <trip id="94" depart="99.71" from="-491359996" to="192251093#3"/>
    <trip id="95" depart="100.77" from="176164233#9" to="-879161322#4"/>
    <trip id="96" depart="101.83" from="-72859060" to="879161322#6"/>
    <trip id="97" depart="102.89" from="182329167#1" to="772827199#0"/>
    <trip id="98" depart="103.95" from="205617218" to="-191871541"/>
    <trip id="99" depart="105.01" from="966914869#0" to="72859070#3"/>
    <trip id="100" depart="106.07" from="892676282#0" to="882674432"/>
    <trip id="101" depart="107.13" from="689545638#0" to="-478136563#0"/>
    <trip id="102" depart="108.19" from="191871519#0" to="-491385089#1"/>
    <trip id="103" depart="109.26" from="176164231#5" to="-192131977#1"/>
    <trip id="104" depart="110.32" from="140039130#2" to="892676284#7"/>
    <trip id="105" depart="111.38" from="-72859082" to="591383994#1"/>
    <trip id="106" depart="112.44" from="191870725#7" to="191870916#0"/>
    <trip id="107" depart="113.50" from="884218506" to="946205671#2"/>
    <trip id="108" depart="114.56" from="205617224#1" to="491374352#1"/>
    <trip id="109" depart="115.62" from="-447990638" to="1152953479#2"/>
    <trip id="110" depart="116.68" from="892676282#0" to="4293070#8"/>
    <trip id="111" depart="117.74" from="204881558#4" to="552377544#11"/>
    <trip id="112" depart="118.80" from="-192251093#1" to="4316293#1"/>
    <trip id="113" depart="119.86" from="192251093#0" to="74487374"/>
    <trip id="114" depart="120.92" from="-478131320#1" to="884218508#2"/>
    <trip id="115" depart="121.98" from="-204881558#12" to="-491359994"/>
    <trip id="116" depart="123.05" from="374343869#2" to="478131326#0"/>
    <trip id="117" depart="124.11" from="-708422844" to="-36471786#3"/>
    <trip id="118" depart="125.17" from="772827199#2" to="-72859070#2"/>
    <trip id="119" depart="126.23" from="374343869#2" to="444512772#0"/>
    <trip id="120" depart="127.29" from="176164233#8" to="431223669"/>
    <trip id="121" depart="128.35" from="203193279#1" to="884216801#1"/>
    <trip id="122" depart="129.41" from="-491374361#1" to="491374351"/>
    <trip id="123" depart="130.47" from="-72843711#1" to="191870725#0"/>
    <trip id="124" depart="131.53" from="447990640" to="1189340602"/>
    <trip id="125" depart="132.59" from="-879161322#1" to="552377544#3"/>
    <trip id="126" depart="133.65" from="-203193282" to="195008564#2"/>
    <trip id="127" depart="134.71" from="946205671#3" to="946205671#3"/>
    <trip id="128" depart="135.77" from="-203194615" to="-491385089#0"/>
    <trip id="129" depart="136.83" from="-72859082" to="884216800"/>
    <trip id="130" depart="137.90" from="74487360" to="807486034"/>
    <trip id="131" depart="138.96" from="140039129#0" to="-478131326#2"/>
    <trip id="132" depart="140.02" from="583986602#2" to="491359995#1"/>
    <trip id="133" depart="141.08" from="4293070#14" to="892676284#9"/>
    <trip id="134" depart="142.14" from="444512772#1" to="-1230821445#1"/>
    <trip id="135" depart="143.20" from="57133747#3" to="1189340602"/>
    <trip id="136" depart="144.26" from="447990633" to="884216801#4"/>
    <trip id="137" depart="145.32" from="-444161902" to="-36471786#0"/>
    <trip id="138" depart="146.38" from="-210372293" to="422613725"/>
    <trip id="139" depart="147.44" from="-73536703" to="441725105"/>
    <trip id="140" depart="148.50" from="478131326#0" to="-491374360"/>
    <trip id="141" depart="149.56" from="4316293#2" to="-833161572#3"/>
    <trip id="142" depart="150.62" from="191871528" to="833164211"/>
    <trip id="143" depart="151.69" from="591383994#8" to="-204881558#4"/>
    <trip id="144" depart="152.75" from="181728253#0" to="-879161322#3"/>
    <trip id="145" depart="153.81" from="-1072277084#1" to="57133747#6"/>
    <trip id="146" depart="154.87" from="4316293#4" to="-833161572#2"/>
    <trip id="147" depart="155.93" from="491358692" to="422613722"/>
    <trip id="148" depart="156.99" from="181728253#2" to="-1230821445#2"/>
    <trip id="149" depart="158.05" from="-204881558#1" to="807486037"/>
    <trip id="150" depart="159.11" from="833161572#2" to="374343869#3"/>
    <trip id="151" depart="160.17" from="591383994#0" to="431223669"/>
    <trip id="152" depart="161.23" from="-444512774" to="-374343869#4"/>
    <trip id="153" depart="162.29" from="-833161572#5" to="833161572#2"/>
    <trip id="154" depart="163.35" from="552377544#10" to="769675541"/>
    <trip id="155" depart="164.41" from="807534248#1" to="-491375094"/>
    <trip id="156" depart="165.47" from="-72859060" to="-205617224#1"/>
    <trip id="157" depart="166.54" from="491385090" to="807486038"/>
    <trip id="158" depart="167.60" from="176164231#9" to="444512772#1"/>
    <trip id="159" depart="168.66" from="-447990638" to="882674433#1"/>
    <trip id="160" depart="169.72" from="72843711#1" to="892676284#12"/>
    <trip id="161" depart="170.78" from="552377544#9" to="807486036"/>
    <trip id="162" depart="171.84" from="-182328360" to="491385092#5"/>
    <trip id="163" depart="172.90" from="1028641827" to="882674433#2"/>
    <trip id="164" depart="173.96" from="552377544#3" to="772827199#1"/>
    <trip id="165" depart="175.02" from="552377544#9" to="-833161572#5"/>
    <trip id="166" depart="176.08" from="491385092#3" to="-210372291"/>
    <trip id="167" depart="177.14" from="72859070#1" to="769675540"/>
    <trip id="168" depart="178.20" from="-491385097#1" to="72843711#2"/>
    <trip id="169" depart="179.26" from="191870912#1" to="1230821445#1"/>
    <trip id="170" depart="180.32" from="552377544#1" to="-583986602#0"/>
    <trip id="171" depart="181.39" from="-142254254#2" to="-491361604"/>
    <trip id="172" depart="182.45" from="-946205672" to="772827199#2"/>
    <trip id="173" depart="183.51" from="884218508#4" to="-879161322#5"/>
    <trip id="174" depart="184.57" from="4316293#7" to="191870725#3"/>
    <trip id="175" depart="185.63" from="892676284#3" to="36471786#1"/>
    <trip id="176" depart="186.69" from="884216801#2" to="-36471786#0"/>
    <trip id="177" depart="187.75" from="892676282#1" to="-491358677"/>
    <trip id="178" depart="188.81" from="884218508#1" to="-833161572#4"/>
    <trip id="179" depart="189.87" from="-210372294" to="191871519#1"/>
    <trip id="180" depart="190.93" from="478136563#0" to="1231902851#1"/>
    <trip id="181" depart="191.99" from="4293070#10" to="210304201#2"/>
    <trip id="182" depart="193.05" from="142254254#1" to="4293070#7"/>
    <trip id="183" depart="194.11" from="-72859070#0" to="491361605#1"/>
    <trip id="184" depart="195.18" from="-1072277084#0" to="879161322#7"/>
    <trip id="185" depart="196.24" from="204881558#2" to="491374352#1"/>
    <trip id="186" depart="197.30" from="491358692" to="478131320#0"/>
    <trip id="187" depart="198.36" from="1323585767" to="-192251093#5"/>
    <trip id="188" depart="199.42" from="447990634" to="140039130#2"/>
    <trip id="189" depart="200.48" from="-84319963" to="73008741"/>
    <trip id="190" depart="201.54" from="478131326#2" to="1189340602"/>
    <trip id="191" depart="202.60" from="-833164211" to="191870912#0"/>
    <trip id="192" depart="203.66" from="176164231#6" to="1152953479#1"/>
    <trip id="193" depart="204.72" from="-374343869#3" to="191870914#2"/>
    <trip id="194" depart="205.78" from="884216801#3" to="478131326#2"/>
    <trip id="195" depart="206.84" from="833161572#2" to="444512770"/>
    <trip id="196" depart="207.90" from="-833161572#0" to="386915488#1"/>
    <trip id="197" depart="208.96" from="-1004930992" to="1028641827"/>
    <trip id="198" depart="210.03" from="181728253#4" to="4293070#9"/>
    <trip id="199" depart="211.09" from="444512772#1" to="203193279#3"/>
    <trip id="200" depart="212.15" from="182329167#1" to="-491385089#1"/>
    <trip id="201" depart="213.21" from="191870915#0" to="833161572#3"/>
    <trip id="202" depart="214.27" from="552377544#10" to="-478136564#1"/>
    <trip id="203" depart="215.33" from="-204881558#5" to="210372288"/>
    <trip id="204" depart="216.39" from="4316293#1" to="142254254#0"/>
    <trip id="205" depart="217.45" from="57133747#4" to="552377544#3"/>
    <trip id="206" depart="218.51" from="447990641" to="-491385097#0"/>
    <trip id="207" depart="219.57" from="-491374351" to="-182328360"/>
    <trip id="208" depart="220.63" from="-72852510" to="204881558#11"/>
    <trip id="209" depart="221.69" from="689545638#0" to="-192251712"/>
    <trip id="210" depart="222.75" from="176164233#4" to="447990638"/>
    <trip id="211" depart="223.82" from="-491361605#1" to="491358693#0"/>
    <trip id="212" depart="224.88" from="191871546" to="-72859070#0"/>
    <trip id="213" depart="225.94" from="444527279" to="-1072277084#2"/>
    <trip id="214" depart="227.00" from="491359995#0" to="57133747#5"/>
    <trip id="215" depart="228.06" from="-210372293" to="191870916#2"/>
    <trip id="216" depart="229.12" from="-478136565#1" to="884218508#0"/>
    <trip id="217" depart="230.18" from="195008564#2" to="-191871541"/>
    <trip id="218" depart="231.24" from="-72859060" to="73008741"/>
    <trip id="219" depart="232.30" from="191870725#8" to="689545646#2"/>
    <trip id="220" depart="233.36" from="447990636" to="892676284#9"/>
    <trip id="221" depart="234.42" from="374343869#3" to="884218503#3"/>
    <trip id="222" depart="235.48" from="772827200" to="444512768"/>
    <trip id="223" depart="236.54" from="478131326#1" to="210304200#0"/>
    <trip id="224" depart="237.60" from="583986602#0" to="374343869#4"/>
    <trip id="225" depart="238.67" from="807534248#0" to="552377544#0"/>
    <trip id="226" depart="239.73" from="191870915#1" to="-833161572#0"/>
    <trip id="227" depart="240.79" from="-72852514#1" to="459910463#1"/>
    <trip id="228" depart="241.85" from="491363276" to="210372293"/>
    <trip id="229" depart="242.91" from="4293070#8" to="-879161322#1"/>
    <trip id="230" depart="243.97" from="-204881558#11" to="1004930992"/>
    <trip id="231" depart="245.03" from="-73008741" to="140039128#1"/>
    <trip id="232" depart="246.09" from="204881558#3" to="-447990632"/>
    <trip id="233" depart="247.15" from="-708422840" to="491358692"/>
    <trip id="234" depart="248.21" from="469770778#5" to="-192251093#1"/>
    <trip id="235" depart="249.27" from="176164231#9" to="374343869#1"/>
    <trip id="236" depart="250.33" from="176164233#5" to="-491374361#1"/>
    <trip id="237" depart="251.39" from="176164233#8" to="833164211"/>
    <trip id="238" depart="252.45" from="36471786#0" to="491358693#0"/>
    <trip id="239" depart="253.52" from="689545647#0" to="57133747#2"/>
    <trip id="240" depart="254.58" from="140039131" to="-1230821445#0"/>
    <trip id="241" depart="255.64" from="1193972632#2" to="552377544#4"/>
    <trip id="242" depart="256.70" from="689545646#0" to="884218505"/>
    <trip id="243" depart="257.76" from="176164233#7" to="552377544#11"/>
    <trip id="244" depart="258.82" from="204881558#7" to="4316765#3"/>
    <trip id="245" depart="259.88" from="-491385097#0" to="-491385092#1"/>
    <trip id="246" depart="260.94" from="182013260#0" to="-191870912#1"/>
    <trip id="247" depart="262.00" from="1062579400" to="478136554"/>
    <trip id="248" depart="263.06" from="176164231#7" to="-478136558"/>
    <trip id="249" depart="264.12" from="191870912#6" to="-374343869#4"/>
    <trip id="250" depart="265.18" from="4293070#4" to="-191713406"/>
    <trip id="251" depart="266.24" from="176164231#10" to="4293070#15"/>
    <trip id="252" depart="267.31" from="-191713406" to="459910929#2"/>
    <trip id="253" depart="268.37" from="-444161903" to="203193279#0"/>
    <trip id="254" depart="269.43" from="-192131977#1" to="181728253#3"/>
    <trip id="255" depart="270.49" from="-491385089#1" to="140039130#0"/>
    <trip id="256" depart="271.55" from="491361609" to="181728253#4"/>
    <trip id="257" depart="272.61" from="491359995#1" to="72859070#0"/>
    <trip id="258" depart="273.67" from="-72859064" to="-204881558#0"/>
    <trip id="259" depart="274.73" from="-142252343#1" to="36471786#4"/>
    <trip id="260" depart="275.79" from="966914869#0" to="176164231#3"/>
    <trip id="261" depart="276.85" from="4316765#2" to="583986602#2"/>
    <trip id="262" depart="277.91" from="4316765#3" to="552377544#5"/>
    <trip id="263" depart="278.97" from="884218503#0" to="-491361612"/>
    <trip id="264" depart="280.03" from="-142254254#0" to="-478131320#0"/>
    <trip id="265" depart="281.09" from="-374343869#3" to="475518379"/>
    <trip id="266" depart="282.16" from="210304200#0" to="-491385092#0"/>
    <trip id="267" depart="283.22" from="469770778#0" to="57133747#3"/>
    <trip id="268" depart="284.28" from="-478136563#0" to="444161901"/>
    <trip id="269" depart="285.34" from="491359993" to="-36471786#0"/>
    <trip id="270" depart="286.40" from="57133747#4" to="884218508#5"/>
    <trip id="271" depart="287.46" from="-210372294" to="-182328360"/>
    <trip id="272" depart="288.52" from="-833798902" to="478131326#2"/>
    <trip id="273" depart="289.58" from="884218506" to="191870725#1"/>
    <trip id="274" depart="290.64" from="478131320#0" to="-195008564#1"/>
    <trip id="275" depart="291.70" from="462531823" to="444859728"/>
    <trip id="276" depart="292.76" from="-210372289" to="57133747#6"/>
    <trip id="277" depart="293.82" from="689545638#1" to="4316765#1"/>
    <trip id="278" depart="294.88" from="-36471786#4" to="892676284#6"/>
    <trip id="279" depart="295.95" from="491385092#0" to="176164231#11"/>
    <trip id="280" depart="297.01" from="181728253#3" to="176164233#8"/>
    <trip id="281" depart="298.07" from="192251093#2" to="175770931#2"/>
    <trip id="282" depart="299.13" from="689545638#0" to="72852510"/>
    <trip id="283" depart="300.19" from="-210372291" to="884218508#2"/>
    <trip id="284" depart="301.25" from="4316293#3" to="72859064"/>
    <trip id="285" depart="302.31" from="469770778#6" to="191871528"/>
    <trip id="286" depart="303.37" from="478136564#2" to="884218508#5"/>
    <trip id="287" depart="304.43" from="-73008734" to="708422840"/>
    <trip id="288" depart="305.49" from="204881558#2" to="204881558#5"/>
    <trip id="289" depart="306.55" from="182013260#0" to="491385092#1"/>
    <trip id="290" depart="307.61" from="-72859086" to="74487360"/>
    <trip id="291" depart="308.67" from="583986602#0" to="-204881558#11"/>
    <trip id="292" depart="309.73" from="74487374" to="-72859070#0"/>
    <trip id="293" depart="310.80" from="191870912#4" to="444161903"/>
    <trip id="294" depart="311.86" from="140039130#2" to="-191870912#1"/>
    <trip id="295" depart="312.92" from="689545638#1" to="-491359987"/>
    <trip id="296" depart="313.98" from="-491385092#0" to="689545638#1"/>
    <trip id="297" depart="315.04" from="1072277084#2" to="807486035"/>
    <trip id="298" depart="316.10" from="469770778#2" to="-879161322#3"/>
    <trip id="299" depart="317.16" from="-1230821446#1" to="884218503#1"/>
    <trip id="300" depart="318.22" from="-204881558#5" to="491374361#1"/>
    <trip id="301" depart="319.28" from="191871528" to="552377544#7"/>
    <trip id="302" depart="320.34" from="462531823" to="462531823"/>
    <trip id="303" depart="321.40" from="191871543" to="591383994#7"/>
    <trip id="304" depart="322.46" from="-205617224#1" to="-491385092#2"/>
    <trip id="305" depart="323.52" from="465869543#0" to="1230821445#2"/>
    <trip id="306" depart="324.58" from="25776902#0" to="204881558#1"/>
    <trip id="307" depart="325.65" from="204881558#0" to="191870916#2"/>
    <trip id="308" depart="326.71" from="491359988" to="140039131"/>
    <trip id="309" depart="327.77" from="469770778#3" to="-878607368"/>
    <trip id="310" depart="328.83" from="-72859062" to="-36471786#4"/>
    <trip id="311" depart="329.89" from="-491359998#1" to="-36471786#3"/>
    <trip id="312" depart="330.95" from="204881558#11" to="552378499"/>
    <trip id="313" depart="332.01" from="-491359988" to="-491385091"/>
    <trip id="314" depart="333.07" from="191871516" to="491375095"/>
    <trip id="315" depart="334.13" from="892676284#10" to="210372295#1"/>
    <trip id="316" depart="335.19" from="-807486033" to="-205617224#0"/>
    <trip id="317" depart="336.25" from="-491361605#1" to="-583986602#0"/>
    <trip id="318" depart="337.31" from="-491358677" to="-1230821446#2"/>
    <trip id="319" depart="338.37" from="204881558#10" to="-879161322#1"/>
    <trip id="320" depart="339.44" from="892676284#1" to="422613725"/>
    <trip id="321" depart="340.50" from="465869543#4" to="-374343869#3"/>
    <trip id="322" depart="341.56" from="72852514#0" to="205617219#0"/>
    <trip id="323" depart="342.62" from="72859070#2" to="4293070#5"/>
    <trip id="324" depart="343.68" from="191870914#1" to="192131977#1"/>
    <trip id="325" depart="344.74" from="-491358693#1" to="-191871541"/>
    <trip id="326" depart="345.80" from="884216801#3" to="204881558#12"/>
    <trip id="327" depart="346.86" from="57133747#6" to="191870725#4"/>
    <trip id="328" depart="347.92" from="-203194615" to="447990631"/>
    <trip id="329" depart="348.98" from="-192251092" to="-447990641"/>
    <trip id="330" depart="350.04" from="210304194#1" to="1193972632#2"/>
    <trip id="331" depart="351.10" from="946205671#0" to="-36471786#2"/>
    <trip id="332" depart="352.16" from="491361614" to="443024838"/>
    <trip id="333" depart="353.22" from="491385097#0" to="-491385097#0"/>
    <trip id="334" depart="354.29" from="203193279#1" to="192251093#4"/>
    <trip id="335" depart="355.35" from="182329167#1" to="769675541"/>
    <trip id="336" depart="356.41" from="892676285" to="1230821445#1"/>
    <trip id="337" depart="357.47" from="4293070#4" to="444161903"/>
    <trip id="338" depart="358.53" from="491358677" to="884218503#1"/>
    <trip id="339" depart="359.59" from="-491375095" to="-491375096"/>
    <trip id="340" depart="360.65" from="447990630" to="-478131326#1"/>
    <trip id="341" depart="361.71" from="-478136565#0" to="-195008564#0"/>
    <trip id="342" depart="362.77" from="-1072277084#0" to="192251093#4"/>
    <trip id="343" depart="363.83" from="374343869#2" to="1072277084#0"/>
    <trip id="344" depart="364.89" from="-708422840" to="491359998#1"/>
    <trip id="345" depart="365.95" from="469770778#3" to="195008563#1"/>
    <trip id="346" depart="367.01" from="459910929#2" to="879161322#6"/>
    <trip id="347" depart="368.07" from="491385092#3" to="444527279"/>
    <trip id="348" depart="369.14" from="447990632" to="884216800"/>
    <trip id="349" depart="370.20" from="181728253#1" to="374343869#2"/>
    <trip id="350" depart="371.26" from="4316765#0" to="833798902"/>
    <trip id="351" depart="372.32" from="576561276#1" to="-192251097#0"/>
    <trip id="352" depart="373.38" from="-478136554" to="1230821446#0"/>
    <trip id="353" depart="374.44" from="491359994" to="4293070#18"/>
    <trip id="354" depart="375.50" from="-807486037" to="-374343869#1"/>
    <trip id="355" depart="376.56" from="459910930" to="491359993"/>
    <trip id="356" depart="377.62" from="884216801#4" to="210304158"/>
    <trip id="357" depart="378.68" from="191871546" to="-203194615"/>
    <trip id="358" depart="379.74" from="-191870914#2" to="191871516"/>
    <trip id="359" depart="380.80" from="-879161322#5" to="-72859078"/>
    <trip id="360" depart="381.86" from="-204881558#9" to="884218508#3"/>
    <trip id="361" depart="382.93" from="591383994#1" to="4293070#6"/>
    <trip id="362" depart="383.99" from="884218503#1" to="966914869#1"/>
    <trip id="363" depart="385.05" from="447990640" to="-84319963"/>
    <trip id="364" depart="386.11" from="-191870915#1" to="552377544#6"/>
    <trip id="365" depart="387.17" from="191870914#1" to="465869543#3"/>
    <trip id="366" depart="388.23" from="878607369#0" to="-491358693#0"/>
    <trip id="367" depart="389.29" from="36471786#1" to="450104903#2"/>
    <trip id="368" depart="390.35" from="191871543" to="-204881558#3"/>
    <trip id="369" depart="391.41" from="1193972632#0" to="142252343#0"/>
    <trip id="370" depart="392.47" from="447990639" to="764337568"/>
    <trip id="371" depart="393.53" from="-966914869#1" to="491358677"/>
    <trip id="372" depart="394.59" from="-807486037" to="884216805#1"/>
    <trip id="373" depart="395.65" from="57133747#0" to="422610123"/>
    <trip id="374" depart="396.71" from="191870725#6" to="1231902851#1"/>
    <trip id="375" depart="397.78" from="-879161322#5" to="892676284#0"/>
    <trip id="376" depart="398.84" from="176164231#7" to="210372287"/>
    <trip id="377" depart="399.90" from="892676284#8" to="469770778#2"/>
    <trip id="378" depart="400.96" from="204881558#5" to="191870912#3"/>
    <trip id="379" depart="402.02" from="-491359995#1" to="176164233#1"/>
    <trip id="380" depart="403.08" from="491361604" to="444587353"/>
    <trip id="381" depart="404.14" from="491361606" to="-491374360"/>
    <trip id="382" depart="405.20" from="204881558#9" to="882674433#0"/>
    <trip id="383" depart="406.26" from="182013290" to="491359988"/>
    <trip id="384" depart="407.32" from="-36471786#4" to="892676284#10"/>
    <trip id="385" depart="408.38" from="4293070#12" to="-72843711#2"/>
    <trip id="386" depart="409.44" from="-478131320#1" to="422613722"/>
    <trip id="387" depart="410.50" from="205617219#1" to="-204881558#5"/>
    <trip id="388" depart="411.57" from="946192267" to="878607369#1"/>
    <trip id="389" depart="412.63" from="191870912#2" to="-36471786#2"/>
    <trip id="390" depart="413.69" from="583986602#1" to="210304119"/>
    <trip id="391" depart="414.75" from="478131322" to="210304201#0"/>
    <trip id="392" depart="415.81" from="-74487360" to="72859070#2"/>
    <trip id="393" depart="416.87" from="892676284#3" to="-72859070#0"/>
    <trip id="394" depart="417.93" from="205617219#0" to="181734847#2"/>
    <trip id="395" depart="418.99" from="879161322#2" to="210304201#0"/>
    <trip id="396" depart="420.05" from="72859086" to="772827199#1"/>
    <trip id="397" depart="421.11" from="-74487381" to="591383994#5"/>
    <trip id="398" depart="422.17" from="176164233#5" to="884216801#1"/>
    <trip id="399" depart="423.23" from="192251093#3" to="72852508"/>
    <trip id="400" depart="424.29" from="-807486033" to="1152953479#3"/>
    <trip id="401" depart="425.35" from="36471786#2" to="966914869#1"/>
    <trip id="402" depart="426.42" from="191871541" to="-447990640"/>
    <trip id="403" depart="427.48" from="204881558#2" to="176164231#10"/>
    <trip id="404" depart="428.54" from="205617219#0" to="374343869#1"/>
    <trip id="405" depart="429.60" from="191870725#7" to="140039129#0"/>
    <trip id="406" depart="430.66" from="-491359995#1" to="491358693#1"/>
    <trip id="407" depart="431.72" from="210304201#2" to="-708422843#0"/>
    <trip id="408" depart="432.78" from="491375096" to="-191870915#1"/>
    <trip id="409" depart="433.84" from="491359987" to="491359996"/>
    <trip id="410" depart="434.90" from="552378499" to="182013260#0"/>
    <trip id="411" depart="435.96" from="447990633" to="72852508"/>