<?xml version="1.0" encoding="UTF-8"?>

<!-- generated on 2025-04-29 23:25:54.292981 by randomTrips.py UNKNOWN
<configuration>
    <net-file value="map.net.xml"/>
    <route-file value="map.rou.xml"/>
    <end value="600.0"/>
    <insertion-density value="90.0"/>
</configuration>
-->

<routes xmlns:xsi="http://www.w3.org/2001/XMLSchema-instance" xsi:noNamespaceSchemaLocation="http://sumo.dlr.de/xsd/routes_file.xsd">
    <trip id="0" depart="0.00" from="4294743#2" to="-191693988#0"/>
    <trip id="1" depart="1.00" from="175770847#0" to="1062579398"/>
    <trip id="2" depart="2.00" from="455109356#3" to="455109345#2"/>
    <trip id="3" depart="3.00" from="73834074#0" to="-320913805"/>
    <trip id="4" depart="4.00" from="192131963" to="-191693988#1"/>
    <trip id="5" depart="5.00" from="-983547240" to="203193641#5"/>
    <trip id="6" depart="6.00" from="-191695843" to="-74327650#1"/>
    <trip id="7" depart="7.00" from="441978139#0" to="210371184#1"/>
    <trip id="8" depart="8.00" from="1062579398" to="381926822#3"/>
    <trip id="9" depart="9.00" from="73834056" to="-1231717883#1"/>
    <trip id="10" depart="10.00" from="73834051#0" to="455109356#0"/>
    <trip id="11" depart="11.01" from="175770904#2" to="-73834073#1"/>
    <trip id="12" depart="12.01" from="826238560#0" to="175770904#1"/>
    <trip id="13" depart="13.01" from="-73834056" to="-443968881#0"/>
    <trip id="14" depart="14.01" from="73834059#5" to="4294743#1"/>
    <trip id="15" depart="15.01" from="73834056" to="529788256"/>
    <trip id="16" depart="16.01" from="210371147" to="884807585"/>
    <trip id="17" depart="17.01" from="182013296#4" to="25776902#2"/>
    <trip id="18" depart="18.01" from="73834059#1" to="4295393#1"/>
    <trip id="19" depart="19.01" from="73834069#1" to="381926822#1"/>
    <trip id="20" depart="20.01" from="455109345#2" to="-210371132"/>
    <trip id="21" depart="21.01" from="1203883358" to="175770850#0"/>
    <trip id="22" depart="22.01" from="-73834051#1" to="1231717883#1"/>
    <trip id="23" depart="23.01" from="-73834059#1" to="175770847#2"/>
    <trip id="24" depart="24.01" from="4294743#1" to="182013296#0"/>
    <trip id="25" depart="25.01" from="182013296#2" to="-75984232"/>
    <trip id="26" depart="26.01" from="1324303368#2" to="74327650#2"/>
    <trip id="27" depart="27.01" from="4295393#1" to="4294743#2"/>
    <trip id="28" depart="28.01" from="-73834074#2" to="529788256"/>
    <trip id="29" depart="29.01" from="-73834073#6" to="182013296#2"/>
    <trip id="30" depart="30.01" from="901958879" to="442142344#1"/>
    <trip id="31" depart="31.01" from="210371174" to="455109345#4"/>
    <trip id="32" depart="32.01" from="73834059#4" to="73834051#0"/>
    <trip id="33" depart="33.02" from="1231717883#0" to="-192131963"/>
    <trip id="34" depart="34.02" from="175770863#0" to="1324303368#3"/>
    <trip id="35" depart="35.02" from="-884807586" to="74327652#1"/>
    <trip id="36" depart="36.02" from="73834073#2" to="175770863#1"/>
    <trip id="37" depart="37.02" from="441978139#1" to="182013296#5"/>
    <trip id="38" depart="38.02" from="73834101#1" to="192204261#4"/>
    <trip id="39" depart="39.02" from="1324303368#2" to="1286786560"/>
    <trip id="40" depart="40.02" from="210371184#0" to="1324303368#2"/>
    <trip id="41" depart="41.02" from="25776902#3" to="73834074#3"/>
    <trip id="42" depart="42.02" from="182013296#9" to="-884807586"/>
    <trip id="43" depart="43.02" from="991667825#1" to="204882900"/>
    <trip id="44" depart="44.02" from="-73834053" to="-210371132"/>
    <trip id="45" depart="45.02" from="-73834059#3" to="441978139#1"/>
    <trip id="46" depart="46.02" from="706136004#1" to="191693988#0"/>
    <trip id="47" depart="47.02" from="-443968881#0" to="182013296#2"/>
    <trip id="48" depart="48.02" from="991667825#1" to="210371145"/>
    <trip id="49" depart="49.02" from="884676911#0" to="73834073#1"/>
    <trip id="50" depart="50.02" from="-182013285" to="455109356#5"/>
    <trip id="51" depart="51.02" from="443968881#1" to="210371157"/>
    <trip id="52" depart="52.02" from="1324303368#2" to="442142344#1"/>
    <trip id="53" depart="53.02" from="-73834059#3" to="191695843"/>
    <trip id="54" depart="54.02" from="192204261#6" to="764341293"/>
    <trip id="55" depart="55.03" from="73834073#2" to="1324303368#2"/>
    <trip id="56" depart="56.03" from="208969532#0" to="-73834074#0"/>
    <trip id="57" depart="57.03" from="73834101#1" to="73834073#3"/>
    <trip id="58" depart="58.03" from="175770857#0" to="442142344#1"/>
    <trip id="59" depart="59.03" from="381926822#1" to="-73834073#0"/>
    <trip id="60" depart="60.03" from="561521678#1" to="210371184#0"/>
    <trip id="61" depart="61.03" from="66689933" to="210371145"/>
    <trip id="62" depart="62.03" from="-1231717883#1" to="175770863#3"/>
    <trip id="63" depart="63.03" from="-191693988#0" to="73834101#5"/>
    <trip id="64" depart="64.03" from="73834073#3" to="73834059#5"/>
    <trip id="65" depart="65.03" from="175770857#2" to="-210371147"/>
    <trip id="66" depart="66.03" from="73834073#3" to="74327652#1"/>
    <trip id="67" depart="67.03" from="-73834052" to="203193641#1"/>
    <trip id="68" depart="68.03" from="-443968881#1" to="695799544#1"/>
    <trip id="69" depart="69.03" from="561521678#2" to="-73834059#2"/>
    <trip id="70" depart="70.03" from="203193641#1" to="25776902#1"/>
    <trip id="71" depart="71.03" from="1324303368#2" to="73834073#4"/>
    <trip id="72" depart="72.03" from="192131963" to="-884807585"/>
    <trip id="73" depart="73.03" from="210371147" to="529788256"/>
    <trip id="74" depart="74.03" from="-74327652#1" to="175770863#0"/>
    <trip id="75" depart="75.03" from="991667825#0" to="443968881#0"/>
    <trip id="76" depart="76.03" from="192204261#2" to="208969532#2"/>
    <trip id="77" depart="77.04" from="-73834059#5" to="1217398683"/>
    <trip id="78" depart="78.04" from="175770904#2" to="381926822#3"/>
    <trip id="79" depart="79.04" from="1231717883#0" to="-884807586"/>
    <trip id="80" depart="80.04" from="-529788256" to="441978139#2"/>
    <trip id="81" depart="81.04" from="1231717883#0" to="73834101#0"/>
    <trip id="82" depart="82.04" from="73834069#0" to="-210371167"/>
    <trip id="83" depart="83.04" from="1231717883#2" to="455109345#0"/>
    <trip id="84" depart="84.04" from="-884807586" to="-73834059#3"/>
    <trip id="85" depart="85.04" from="74327650#0" to="320913805"/>
    <trip id="86" depart="86.04" from="203193641#0" to="73834052"/>
    <trip id="87" depart="87.04" from="73834056" to="-73834074#3"/>
    <trip id="88" depart="88.04" from="-73834059#0" to="191694238"/>
    <trip id="89" depart="89.04" from="192131963" to="192204261#6"/>
    <trip id="90" depart="90.04" from="455109356#2" to="455109345#1"/>
    <trip id="91" depart="91.04" from="884807586" to="-443968881#1"/>
    <trip id="92" depart="92.04" from="182013296#9" to="175770904#2"/>
    <trip id="93" depart="93.04" from="73834069#1" to="1286786561"/>
    <trip id="94" depart="94.04" from="-74327650#2" to="192204261#1"/>
    <trip id="95" depart="95.04" from="192131963" to="175770847#2"/>
    <trip id="96" depart="96.04" from="1286786560" to="73834101#4"/>
    <trip id="97" depart="97.04" from="192204261#4" to="73834073#1"/>
    <trip id="98" depart="98.04" from="210371167" to="-210371142"/>
    <trip id="99" depart="99.05" from="991667825#1" to="73834060"/>
    <trip id="100" depart="100.05" from="826238560#2" to="73834101#5"/>
    <trip id="101" depart="101.05" from="73834059#5" to="-73834073#3"/>
    <trip id="102" depart="102.05" from="203193641#3" to="-884807585"/>
    <trip id="103" depart="103.05" from="182013296#9" to="-210371147"/>
    <trip id="104" depart="104.05" from="182013296#4" to="983547240"/>
    <trip id="105" depart="105.05" from="1324303368#2" to="73834051#1"/>
    <trip id="106" depart="106.05" from="192204261#6" to="191693988#1"/>
    <trip id="107" depart="107.05" from="826238560#0" to="991667825#1"/>
    <trip id="108" depart="108.05" from="210371174" to="455109356#5"/>
    <trip id="109" depart="109.05" from="-73834073#4" to="175770857#0"/>
    <trip id="110" depart="110.05" from="826238560#2" to="381926822#1"/>
    <trip id="111" depart="111.05" from="210371149" to="561521678#3"/>
    <trip id="112" depart="112.05" from="-384953198" to="381926822#2"/>
    <trip id="113" depart="113.05" from="208969532#0" to="73834069#1"/>
    <trip id="114" depart="114.05" from="-73834073#4" to="826238560#2"/>
    <trip id="115" depart="115.05" from="-73834051#1" to="-73834074#2"/>
    <trip id="116" depart="116.05" from="28670043#1" to="455109345#2"/>
    <trip id="117" depart="117.05" from="1231717883#1" to="-73834059#0"/>
    <trip id="118" depart="118.05" from="73834073#5" to="1286786560"/>
    <trip id="119" depart="119.05" from="28670043#1" to="4295393#1"/>
    <trip id="120" depart="120.05" from="191693988#1" to="381926822#2"/>
    <trip id="121" depart="121.06" from="210371132" to="74327650#2"/>
    <trip id="122" depart="122.06" from="-75984232" to="455109356#4"/>
    <trip id="123" depart="123.06" from="1231717883#2" to="182013296#5"/>
    <trip id="124" depart="124.06" from="442142344#2" to="175770857#1"/>
    <trip id="125" depart="125.06" from="175770863#1" to="561521678#4"/>
    <trip id="126" depart="126.06" from="-529788256" to="192204261#4"/>
    <trip id="127" depart="127.06" from="991667825#1" to="991667825#2"/>
    <trip id="128" depart="128.06" from="-529788256" to="-884807585"/>
    <trip id="129" depart="129.06" from="1324303368#2" to="74327650#1"/>
    <trip id="130" depart="130.06" from="73834073#3" to="73834073#5"/>
    <trip id="131" depart="131.06" from="182013296#2" to="-73834073#1"/>
    <trip id="132" depart="132.06" from="73834059#2" to="455109356#1"/>
    <trip id="133" depart="133.06" from="381926822#2" to="991667825#0"/>
    <trip id="134" depart="134.06" from="441978139#1" to="-1231717883#1"/>
    <trip id="135" depart="135.06" from="73834057#1" to="175770857#0"/>
    <trip id="136" depart="136.06" from="442142344#0" to="74327652#0"/>
    <trip id="137" depart="137.06" from="-73834068" to="-73834058"/>
    <trip id="138" depart="138.06" from="-73834059#2" to="25776902#2"/>
    <trip id="139" depart="139.06" from="175770847#0" to="4294743#1"/>
    <trip id="140" depart="140.06" from="455109354" to="-74327652#0"/>
    <trip id="141" depart="141.06" from="4294743#1" to="1324303368#2"/>
    <trip id="142" depart="142.06" from="203193641#4" to="73834101#0"/>
    <trip id="143" depart="143.07" from="73834059#4" to="-384953198"/>
    <trip id="144" depart="144.07" from="192131963" to="175770847#1"/>
    <trip id="145" depart="145.07" from="-1231717883#1" to="706136004#1"/>
    <trip id="146" depart="146.07" from="4294743#2" to="1324303368#2"/>
    <trip id="147" depart="147.07" from="455109356#5" to="25776902#2"/>
    <trip id="148" depart="148.07" from="192204261#0" to="-1231717883#2"/>
    <trip id="149" depart="149.07" from="-73834051#0" to="73834073#6"/>
    <trip id="150" depart="150.07" from="73834074#3" to="210371184#1"/>
    <trip id="151" depart="151.07" from="73834059#2" to="381926822#2"/>
    <trip id="152" depart="152.07" from="-73834073#2" to="-73834059#1"/>
    <trip id="153" depart="153.07" from="175770857#2" to="73834074#4"/>
    <trip id="154" depart="154.07" from="706136005" to="73834073#1"/>
    <trip id="155" depart="155.07" from="73834074#1" to="-75984232"/>
    <trip id="156" depart="156.07" from="1286786560" to="-73834050"/>
    <trip id="157" depart="157.07" from="66689933" to="73834073#6"/>
    <trip id="158" depart="158.07" from="191693979" to="4295393#1"/>
    <trip id="159" depart="159.07" from="-73834073#4" to="74327650#1"/>
    <trip id="160" depart="160.07" from="73834073#0" to="884807586"/>
    <trip id="161" depart="161.07" from="73834056" to="73834073#6"/>
    <trip id="162" depart="162.07" from="-191693988#1" to="561521678#1"/>
    <trip id="163" depart="163.07" from="175770904#0" to="74327650#1"/>
    <trip id="164" depart="164.07" from="73834050" to="73834073#2"/>
    <trip id="165" depart="165.08" from="73834056" to="1324303368#3"/>
    <trip id="166" depart="166.08" from="706136004#0" to="-73834051#0"/>
    <trip id="167" depart="167.08" from="73834073#1" to="73834073#0"/>
    <trip id="168" depart="168.08" from="1062579398" to="73834059#2"/>
    <trip id="169" depart="169.08" from="192204261#7" to="175770857#2"/>
    <trip id="170" depart="170.08" from="706136005" to="1217398683"/>
    <trip id="171" depart="171.08" from="-191693988#1" to="-73834074#3"/>
    <trip id="172" depart="172.08" from="175770863#3" to="73834073#2"/>
    <trip id="173" depart="173.08" from="826238560#2" to="175770847#2"/>
    <trip id="174" depart="174.08" from="4295393#0" to="182013296#6"/>
    <trip id="175" depart="175.08" from="884807585" to="210371157"/>
    <trip id="176" depart="176.08" from="74327650#1" to="-73834058"/>
    <trip id="177" depart="177.08" from="884676911#0" to="-73834074#0"/>
    <trip id="178" depart="178.08" from="826238560#1" to="1324303368#3"/>
    <trip id="179" depart="179.08" from="-73834059#2" to="191695843"/>
    <trip id="180" depart="180.08" from="455109356#2" to="175770863#1"/>
    <trip id="181" depart="181.08" from="381926822#1" to="208969532#1"/>
    <trip id="182" depart="182.08" from="182013296#5" to="381926822#0"/>
    <trip id="183" depart="183.08" from="1324303368#0" to="455109356#2"/>
    <trip id="184" depart="184.08" from="-1231717883#1" to="73834101#5"/>
    <trip id="185" depart="185.08" from="210371147" to="455109356#5"/>
    <trip id="186" depart="186.08" from="455109356#5" to="455109345#1"/>
    <trip id="187" depart="187.09" from="182013296#11" to="-210371157"/>
    <trip id="188" depart="188.09" from="442142344#0" to="175770903"/>
    <trip id="189" depart="189.09" from="175770863#0" to="73834069#0"/>
    <trip id="190" depart="190.09" from="455109356#0" to="175770857#1"/>
    <trip id="191" depart="191.09" from="175770857#2" to="182013296#8"/>
    <trip id="192" depart="192.09" from="182013296#9" to="175770857#0"/>
    <trip id="193" depart="193.09" from="-73834061" to="191693988#0"/>
    <trip id="194" depart="194.09" from="74327650#1" to="455109345#2"/>
    <trip id="195" depart="195.09" from="73834074#2" to="4295393#0"/>
    <trip id="196" depart="196.09" from="175770857#0" to="25776902#1"/>
    <trip id="197" depart="197.09" from="-1231717883#1" to="175770850#0"/>
    <trip id="198" depart="198.09" from="192204261#1" to="381926822#1"/>
    <trip id="199" depart="199.09" from="441978139#1" to="192204261#5"/>
    <trip id="200" depart="200.09" from="192204261#3" to="-884807585"/>
    <trip id="201" depart="201.09" from="203193641#0" to="73834074#4"/>
    <trip id="202" depart="202.09" from="706136005" to="-73834073#4"/>
    <trip id="203" depart="203.09" from="-73834052" to="208969532#2"/>
    <trip id="204" depart="204.09" from="4294743#1" to="175770904#1"/>
    <trip id="205" depart="205.09" from="73834057#1" to="561521678#4"/>
    <trip id="206" depart="206.09" from="442142344#2" to="1062579398"/>
    <trip id="207" depart="207.09" from="-74327652#1" to="-191693988#0"/>
    <trip id="208" depart="208.09" from="1275581583" to="192204261#7"/>
    <trip id="209" depart="209.10" from="73834059#5" to="-210371167"/>
    <trip id="210" depart="210.10" from="191693988#0" to="441978139#1"/>
    <trip id="211" depart="211.10" from="-74327652#0" to="455109356#0"/>
    <trip id="212" depart="212.10" from="203193641#5" to="1286786560"/>
    <trip id="213" depart="213.10" from="441978139#1" to="-1231717883#1"/>
    <trip id="214" depart="214.10" from="457675899" to="706136004#0"/>
    <trip id="215" depart="215.10" from="-73834059#2" to="191693988#1"/>
    <trip id="216" depart="216.10" from="-73834074#3" to="826238560#1"/>
    <trip id="217" depart="217.10" from="210371121" to="-210371142"/>
    <trip id="218" depart="218.10" from="1286786560" to="73834069#0"/>
    <trip id="219" depart="219.10" from="192204261#7" to="73834057#0"/>
    <trip id="220" depart="220.10" from="442142344#1" to="991667825#0"/>
    <trip id="221" depart="221.10" from="28670043#1" to="75984232"/>
    <trip id="222" depart="222.10" from="73834074#0" to="4295393#0"/>
    <trip id="223" depart="223.10" from="455109354" to="203193641#5"/>
    <trip id="224" depart="224.10" from="73834059#1" to="25776902#1"/>
    <trip id="225" depart="225.10" from="73834074#1" to="561521678#2"/>
    <trip id="226" depart="226.10" from="203193641#1" to="1324303368#1"/>
    <trip id="227" depart="227.10" from="1286786560" to="442142344#0"/>
    <trip id="228" depart="228.10" from="561521678#2" to="208969532#3"/>
    <trip id="229" depart="229.10" from="384953198" to="175770847#1"/>
    <trip id="230" depart="230.10" from="-73834051#0" to="175770847#3"/>
    <trip id="231" depart="231.11" from="1324303368#3" to="175770863#2"/>
    <trip id="232" depart="232.11" from="210371149" to="-73834059#4"/>
    <trip id="233" depart="233.11" from="1231717883#0" to="455109354"/>
    <trip id="234" depart="234.11" from="455109345#3" to="-210371149"/>
    <trip id="235" depart="235.11" from="191693979" to="210371184#1"/>
    <trip id="236" depart="236.11" from="191693988#0" to="-74327652#0"/>
    <trip id="237" depart="237.11" from="191693988#1" to="73834101#0"/>
    <trip id="238" depart="238.11" from="25776902#3" to="455109354"/>
    <trip id="239" depart="239.11" from="73834069#0" to="706134221"/>
    <trip id="240" depart="240.11" from="182013296#4" to="-1231717883#1"/>
    <trip id="241" depart="241.11" from="182013296#0" to="695799544#0"/>
    <trip id="242" depart="242.11" from="73834068" to="764341293"/>
    <trip id="243" depart="243.11" from="191693988#1" to="561521678#3"/>
    <trip id="244" depart="244.11" from="210371157" to="4294743#0"/>
    <trip id="245" depart="245.11" from="1062579398" to="-884807586"/>
    <trip id="246" depart="246.11" from="192204261#2" to="-191693988#1"/>
    <trip id="247" depart="247.11" from="175770904#1" to="455109345#3"/>
    <trip id="248" depart="248.11" from="191693979" to="-73834073#3"/>
    <trip id="249" depart="249.11" from="192204261#9" to="-73834059#1"/>
    <trip id="250" depart="250.11" from="382278720" to="-191693988#1"/>
    <trip id="251" depart="251.11" from="182013296#7" to="28670043#1"/>
    <trip id="252" depart="252.11" from="-191695843" to="442142344#1"/>
    <trip id="253" depart="253.12" from="-73834068" to="192204261#4"/>
    <trip id="254" depart="254.12" from="-210371157" to="182013296#2"/>
    <trip id="255" depart="255.12" from="-884807586" to="175770903"/>
    <trip id="256" depart="256.12" from="561521678#1" to="182013296#2"/>
    <trip id="257" depart="257.12" from="457675899" to="73834059#5"/>
    <trip id="258" depart="258.12" from="1286786561" to="-210371206"/>
    <trip id="259" depart="259.12" from="-191693988#0" to="210371184#0"/>
    <trip id="260" depart="260.12" from="991667825#1" to="175770904#4"/>
    <trip id="261" depart="261.12" from="441978139#0" to="73834051#1"/>
    <trip id="262" depart="262.12" from="441978139#0" to="695799544#0"/>
    <trip id="263" depart="263.12" from="75984232" to="-74327650#1"/>
    <trip id="264" depart="264.12" from="-191693988#0" to="-73834073#0"/>
    <trip id="265" depart="265.12" from="-73834060" to="455109345#0"/>
    <trip id="266" depart="266.12" from="210371184#1" to="-884807586"/>
    <trip id="267" depart="267.12" from="455109345#1" to="706136004#0"/>
    <trip id="268" depart="268.12" from="-73834074#1" to="4294743#1"/>
    <trip id="269" depart="269.12" from="455109356#6" to="-73834056"/>
    <trip id="270" depart="270.12" from="73834057#1" to="826238560#2"/>
    <trip id="271" depart="271.12" from="-73834059#2" to="-191693988#0"/>
    <trip id="272" depart="272.12" from="175770863#0" to="455109345#2"/>
    <trip id="273" depart="273.12" from="826238560#0" to="182013296#6"/>
    <trip id="274" depart="274.12" from="455109354" to="-210371174"/>
    <trip id="275" depart="275.13" from="444124708#1" to="441978139#1"/>
    <trip id="276" depart="276.13" from="-73834059#1" to="706136004#1"/>
    <trip id="277" depart="277.13" from="73834059#5" to="4294743#0"/>
    <trip id="278" depart="278.13" from="-73834059#5" to="983547240"/>
    <trip id="279" depart="279.13" from="695799544#0" to="175770904#3"/>
    <trip id="280" depart="280.13" from="192204261#0" to="182013296#10"/>
    <trip id="281" depart="281.13" from="208969532#1" to="175770904#2"/>
    <trip id="282" depart="282.13" from="73834059#5" to="73834059#3"/>
    <trip id="283" depart="283.13" from="-73834059#2" to="826238560#2"/>
    <trip id="284" depart="284.13" from="4294743#1" to="73834059#5"/>
    <trip id="285" depart="285.13" from="455109345#3" to="191695843"/>
    <trip id="286" depart="286.13" from="455109356#3" to="884676911#1"/>
    <trip id="287" depart="287.13" from="1324303368#3" to="73834059#0"/>
    <trip id="288" depart="288.13" from="210371147" to="192204261#9"/>
    <trip id="289" depart="289.13" from="192204261#2" to="529788256"/>
    <trip id="290" depart="290.13" from="1324303368#3" to="73834069#1"/>
    <trip id="291" depart="291.13" from="73834059#1" to="-320913805"/>
    <trip id="292" depart="292.13" from="73834073#4" to="1286786560"/>
    <trip id="293" depart="293.13" from="192204261#8" to="4294743#2"/>
    <trip id="294" depart="294.13" from="182013296#4" to="-191693988#1"/>
    <trip id="295" depart="295.13" from="73834068" to="-73834074#1"/>
    <trip id="296" depart="296.13" from="-884807586" to="73834057#0"/>
    <trip id="297" depart="297.14" from="175770904#2" to="73834073#5"/>
    <trip id="298" depart="298.14" from="455109345#1" to="175770847#1"/>
    <trip id="299" depart="299.14" from="-182013285" to="75984232"/>
    <trip id="300" depart="300.14" from="-73834052" to="455109356#5"/>
    <trip id="301" depart="301.14" from="203193641#4" to="695799544#1"/>
    <trip id="302" depart="302.14" from="444124708#1" to="442142344#2"/>
    <trip id="303" depart="303.14" from="203193641#4" to="73834053"/>
    <trip id="304" depart="304.14" from="-73834056" to="1062579398"/>
    <trip id="305" depart="305.14" from="444124708#1" to="175770857#2"/>
    <trip id="306" depart="306.14" from="25776902#2" to="192204261#7"/>
    <trip id="307" depart="307.14" from="210371145" to="191693988#1"/>
    <trip id="308" depart="308.14" from="455109356#6" to="175770904#0"/>
    <trip id="309" depart="309.14" from="455109345#2" to="175770847#0"/>
    <trip id="310" depart="310.14" from="1286786561" to="-73834059#0"/>
    <trip id="311" depart="311.14" from="-74327650#2" to="-73834059#0"/>
    <trip id="312" depart="312.14" from="210371147" to="706134221"/>
    <trip id="313" depart="313.14" from="-74327650#1" to="-884807586"/>
    <trip id="314" depart="314.14" from="203193641#3" to="455109356#6"/>
    <trip id="315" depart="315.14" from="884676911#1" to="210371121"/>
    <trip id="316" depart="316.14" from="175770847#2" to="-443968881#1"/>
    <trip id="317" depart="317.14" from="-74327652#0" to="1217398683"/>
    <trip id="318" depart="318.14" from="-73834074#3" to="-191693979"/>
    <trip id="319" depart="319.15" from="210371145" to="175770847#1"/>
    <trip id="320" depart="320.15" from="884676911#1" to="25776902#2"/>
    <trip id="321" depart="321.15" from="455109345#1" to="-73834059#1"/>
    <trip id="322" depart="322.15" from="73834073#1" to="203193641#2"/>
    <trip id="323" depart="323.15" from="73834073#1" to="381926822#0"/>
    <trip id="324" depart="324.15" from="203193641#0" to="192131963"/>
    <trip id="325" depart="325.15" from="-74327650#1" to="-210371142"/>
    <trip id="326" depart="326.15" from="74327650#1" to="192204261#8"/>
    <trip id="327" depart="327.15" from="73834058" to="182013296#6"/>
    <trip id="328" depart="328.15" from="-529788256" to="441978139#1"/>
    <trip id="329" depart="329.15" from="-320913805" to="-73834068"/>
    <trip id="330" depart="330.15" from="210371184#1" to="175770857#1"/>
    <trip id="331" depart="331.15" from="991667825#0" to="-73834058"/>
    <trip id="332" depart="332.15" from="561521678#2" to="4294743#1"/>
    <trip id="333" depart="333.15" from="706136004#1" to="1217398683"/>
    <trip id="334" depart="334.15" from="210371132" to="192204261#2"/>
    <trip id="335" depart="335.15" from="192204261#3" to="73834073#1"/>
    <trip id="336" depart="336.15" from="901958879" to="175770857#2"/>
    <trip id="337" depart="337.15" from="382278720" to="4294743#2"/>
    <trip id="338" depart="338.15" from="455109356#4" to="75984232"/>
    <trip id="339" depart="339.15" from="-884807585" to="-75984232"/>
    <trip id="340" depart="340.15" from="441978139#2" to="-73834073#1"/>
    <trip id="341" depart="341.16" from="-73834074#2" to="-210371174"/>
    <trip id="342" depart="342.16" from="-1231717883#1" to="192204261#2"/>
    <trip id="343" depart="343.16" from="28670043#1" to="175770850#1"/>
    <trip id="344" depart="344.16" from="1231717883#0" to="455109356#2"/>
    <trip id="345" depart="345.16" from="455109345#2" to="192204261#3"/>
    <trip id="346" depart="346.16" from="444124708#0" to="73834101#4"/>
    <trip id="347" depart="347.16" from="706136004#0" to="441978139#0"/>
    <trip id="348" depart="348.16" from="441978139#2" to="74327650#1"/>
    <trip id="349" depart="349.16" from="192131963" to="210371184#1"/>
    <trip id="350" depart="350.16" from="4295393#1" to="73834101#1"/>
    <trip id="351" depart="351.16" from="73834059#0" to="-210371167"/>
    <trip id="352" depart="352.16" from="-73834073#6" to="175770857#2"/>
    <trip id="353" depart="353.16" from="455109356#6" to="320913805"/>
    <trip id="354" depart="354.16" from="175770847#3" to="-73834059#1"/>
    <trip id="355" depart="355.16" from="444124708#1" to="455109356#0"/>
    <trip id="356" depart="356.16" from="74327650#1" to="203193641#4"/>
    <trip id="357" depart="357.16" from="203193641#5" to="-210371206"/>
    <trip id="358" depart="358.16" from="-210371121" to="191695843"/>
    <trip id="359" depart="359.16" from="175770863#2" to="1286786561"/>
    <trip id="360" depart="360.16" from="-73834053" to="826238560#2"/>
    <trip id="361" depart="361.16" from="73834059#2" to="381926822#0"/>
    <trip id="362" depart="362.16" from="75984232" to="991667825#2"/>
    <trip id="363" depart="363.17" from="442142344#2" to="175770847#0"/>
    <trip id="364" depart="364.17" from="-210371121" to="695799544#0"/>
    <trip id="365" depart="365.17" from="203193641#0" to="443968881#0"/>
    <trip id="366" depart="366.17" from="73834101#1" to="-73834074#1"/>
    <trip id="367" depart="367.17" from="25776902#3" to="442142344#0"/>
    <trip id="368" depart="368.17" from="203193641#5" to="-384953198"/>
    <trip id="369" depart="369.17" from="175770926" to="175770904#0"/>
    <trip id="370" depart="370.17" from="442142344#1" to="73834073#0"/>
    <trip id="371" depart="371.17" from="175770904#0" to="455109354"/>
    <trip id="372" depart="372.17" from="175770847#3" to="74327652#1"/>
    <trip id="373" depart="373.17" from="73834057#0" to="25776902#1"/>
    <trip id="374" depart="374.17" from="192204261#6" to="175770863#1"/>
    <trip id="375" depart="375.17" from="175770863#2" to="884807585"/>
    <trip id="376" depart="376.17" from="191693979" to="208969532#1"/>
    <trip id="377" depart="377.17" from="901958879" to="444124708#0"/>
    <trip id="378" depart="378.17" from="210371149" to="182013296#9"/>
    <trip id="379" depart="379.17" from="-74327650#1" to="182013296#0"/>
    <trip id="380" depart="380.17" from="561521678#0" to="441978139#0"/>
    <trip id="381" depart="381.17" from="561521678#1" to="-74327652#0"/>
    <trip id="382" depart="382.17" from="210371167" to="73834101#5"/>
    <trip id="383" depart="383.17" from="192204261#2" to="455109356#0"/>
    <trip id="384" depart="384.17" from="-73834059#5" to="884807585"/>
    <trip id="385" depart="385.18" from="381926822#1" to="1275581583"/>
    <trip id="386" depart="386.18" from="-73834073#5" to="25776902#2"/>
    <trip id="387" depart="387.18" from="210371167" to="-443968881#0"/>
    <trip id="388" depart="388.18" from="991667825#0" to="73834101#2"/>
    <trip id="389" depart="389.18" from="192204261#8" to="-73834058"/>
    <trip id="390" depart="390.18" from="73834059#1" to="203193641#4"/>
    <trip id="391" depart="391.18" from="455109354" to="204882900"/>
    <trip id="392" depart="392.18" from="175770847#0" to="73834060"/>
    <trip id="393" depart="393.18" from="884807585" to="1286786560"/>
    <trip id="394" depart="394.18" from="210371167" to="182013296#3"/>
    <trip id="395" depart="395.18" from="73834101#3" to="204882900"/>
    <trip id="396" depart="396.18" from="73834073#3" to="73834073#2"/>
    <trip id="397" depart="397.18" from="175770847#0" to="73834053"/>
    <trip id="398" depart="398.18" from="191693988#0" to="74327650#2"/>
    <trip id="399" depart="399.18" from="208969532#1" to="73834059#3"/>
    <trip id="400" depart="400.18" from="175770847#2" to="175770857#0"/>
    <trip id="401" depart="401.18" from="25776902#3" to="991667825#2"/>
    <trip id="402" depart="402.18" from="203193641#4" to="-73834068"/>
    <trip id="403" depart="403.18" from="210371147" to="175770904#3"/>
    <trip id="404" depart="404.18" from="210371167" to="210371184#1"/>
    <trip id="405" depart="405.18" from="192204261#6" to="175770863#3"/>
    <trip id="406" depart="406.19" from="-74327650#2" to="455109356#0"/>
    <trip id="407" depart="407.19" from="25776902#0" to="1231717883#2"/>
    <trip id="408" depart="408.19" from="561521678#4" to="-210371121"/>
    <trip id="409" depart="409.19" from="455109356#5" to="455109356#2"/>
    <trip id="410" depart="410.19" from="73834057#0" to="182013296#3"/>
    <trip id="411" depart="411.19" from="442142344#0" to="73834059#3"/>
    <trip id="412" depart="412.19" from="884807585" to="203193641#3"/>
    <trip id="413" depart="413.19" from="-204882900" to="203193641#5"/>