<?xml version="1.0" encoding="UTF-8"?>

<!-- generated on 2025-04-29 23:25:54.959217 by randomTrips.py UNKNOWN
<configuration>
    <net-file value="map.net.xml"/>
    <route-file value="map.rou.xml"/>
    <end value="600.0"/>
    <insertion-density value="90.0"/>
</configuration>
-->

<!-- generated on 2025-04-29 23:25:54 by Eclipse SUMO duarouter Version 1.22.0
<duarouterConfiguration xmlns:xsi="http://www.w3.org/2001/XMLSchema-instance" xsi:noNamespaceSchemaLocation="http://sumo.dlr.de/xsd/duarouterConfiguration.xsd">

    <input>
        <net-file value="map.net.xml"/>
        <route-files value="trips.trips.xml"/>
    </input>

    <output>
        <output-file value="map.rou.xml"/>
        <alternatives-output value="NUL"/>
    </output>

    <time>
        <begin value="0.0"/>
        <end value="600.0"/>
    </time>

    <report>
        <no-warnings value="true"/>
        <ignore-errors value="true"/>
        <no-step-log value="true"/>
    </report>

</duarouterConfiguration>
-->

<routes xmlns:xsi="http://www.w3.org/2001/XMLSchema-instance" xsi:noNamespaceSchemaLocation="http://sumo.dlr.de/xsd/routes_file.xsd">
    <vehicle id="3" depart="3.00">
        <route edges="73834074#0 73834074#1 73834057#0 73834057#1 -320913805"/>
    </vehicle>
    <vehicle id="4" depart="4.00">
        <route edges="192131963 1324303368#1 1324303368#2 191693988#0 191693988#1 -191693988#1"/>
    </vehicle>
    <vehicle id="9" depart="9.00">
        <route edges="73834056 529788256 -529788256 -73834056 73834074#1 73834057#0 73834057#1 -73834073#0 -210371157 203193641#2 203193641#3 203193641#4 203193641#5 175770857#2 545298845#1 545298845#2 545298845#3 1288431685#0 1288431685#1 1288431685#2 1288431685#3 706134222 706134223 448461988 884679729 884679934#0 884679934#1 448461989#0 448461989#1 448461989#2 1280110610#0 1280110610#1 1280110610#2 706136003#0 706136003#1 455109356#0 455109356#1 455109356#2 455109354 192204261#0 192204261#1 192204261#2 192204261#3 192204261#4 -191693979 -1231717883#2 -1231717883#1"/>
    </vehicle>
    <vehicle id="10" depart="10.00">
        <route edges="73834051#0 -73834051#0 -73834074#3 -73834074#2 73834057#0 73834057#1 -73834073#0 -210371157 203193641#2 203193641#3 203193641#4 203193641#5 175770857#2 545298845#1 545298845#2 545298845#3 1288431685#0 1288431685#1 1288431685#2 1288431685#3 706134222 706134223 448461988 884679729 884679934#0 884679934#1 448461989#0 448461989#1 448461989#2 1280110610#0 1280110610#1 1280110610#2 706136003#0 706136003#1 455109356#0"/>
    </vehicle>
    <vehicle id="12" depart="12.01">
        <route edges="826238560#0 826238560#1 826238560#2 208969532#3 884679934#0 884679934#1 448461989#0 448461989#1 448461989#2 175770847#0 175770847#1 175770847#2 175770847#3 175770848 706136000 930827959 441978139#0 441978139#1 441978139#2 175770904#0 175770904#1"/>
    </vehicle>
    <vehicle id="13" depart="13.01">
        <route edges="-73834056 73834074#1 73834057#0 73834057#1 -73834073#0 -210371157 203193641#2 203193641#3 203193641#4 203193641#5 175770857#2 545298845#1 545298845#2 545298845#3 1288431685#0 1288431685#1 442142344#0 442142344#1 442142344#2 901958880 706135999#0 706135999#1 706135999#2 931083214#0 931083214#1 706136001 175770848 455109345#0 455109345#1 455109345#2 455109345#3 455109345#4 182013296#0 182013296#1 182013296#2 182013296#3 182013296#4 182013296#5 182013296#6 182013296#7 182013296#8 182013296#9 182013296#10 384953198 192131963 1324303368#1 -443968881#1 -443968881#0"/>
    </vehicle>
    <vehicle id="14" depart="14.01">
        <route edges="73834059#5 -210371167 210371167 -73834059#5 -73834059#4 -73834059#3 -73834059#2 -73834059#1 -73834059#0 -73834073#2 -73834073#1 -73834073#0 -210371157 203193641#2 203193641#3 203193641#4 203193641#5 175770857#2 545298845#1 545298845#2 4294743#0 4294743#1"/>
    </vehicle>
    <vehicle id="15" depart="15.01">
        <route edges="73834056 529788256"/>
    </vehicle>
    <vehicle id="18" depart="18.01">
        <route edges="73834059#1 -73834059#1 -73834059#0 -73834073#2 -73834073#1 -73834073#0 -210371157 203193641#2 203193641#3 203193641#4 203193641#5 175770857#2 545298845#1 545298845#2 545298845#3 1288431685#0 1288431685#1 442142344#0 442142344#1 442142344#2 901958880 4295393#0 4295393#1"/>
    </vehicle>
    <vehicle id="22" depart="22.01">
        <route edges="-73834051#1 -73834051#0 -73834074#3 -73834074#2 73834057#0 73834057#1 -73834073#0 -210371157 203193641#2 203193641#3 203193641#4 203193641#5 175770857#2 545298845#1 545298845#2 545298845#3 1288431685#0 1288431685#1 1288431685#2 1288431685#3 706134222 706134223 448461988 884679729 884679934#0 884679934#1 448461989#0 448461989#1 448461989#2 1280110610#0 1280110610#1 1280110610#2 706136003#0 706136003#1 455109356#0 455109356#1 455109356#2 455109354 192204261#0 192204261#1 192204261#2 192204261#3 192204261#4 -191693979 -1231717883#2 -1231717883#1 -1231717883#0 1231717883#0 1231717883#1"/>
    </vehicle>
    <vehicle id="23" depart="23.01">
        <route edges="-73834059#1 -73834059#0 -73834073#2 -73834073#1 -73834073#0 -210371157 203193641#2 203193641#3 203193641#4 203193641#5 175770857#2 545298845#1 545298845#2 545298845#3 1288431685#0 1288431685#1 1288431685#2 1288431685#3 706134222 706134223 448461988 884679729 884679934#0 884679934#1 448461989#0 448461989#1 448461989#2 175770847#0 175770847#1 175770847#2"/>
    </vehicle>
    <vehicle id="28" depart="28.01">
        <route edges="-73834074#2 -73834074#1 73834056 529788256"/>
    </vehicle>
    <vehicle id="29" depart="29.01">
        <route edges="-73834073#6 -73834073#5 73834069#0 73834069#1 25776902#2 25776902#3 930827959 706136002#0 706136002#1 901958880 706135999#0 706135999#1 706135999#2 931083214#0 931083214#1 706136001 175770848 455109345#0 455109345#1 455109345#2 455109345#3 455109345#4 182013296#0 182013296#1 182013296#2"/>
    </vehicle>
    <vehicle id="31" depart="31.01">
        <route edges="210371174 -73834059#0 -73834073#2 -73834073#1 -73834073#0 -210371157 203193641#2 203193641#3 203193641#4 203193641#5 175770857#2 545298845#1 545298845#2 545298845#3 1288431685#0 1288431685#1 442142344#0 442142344#1 442142344#2 901958880 706135999#0 706135999#1 706135999#2 931083214#0 931083214#1 706136001 175770848 455109345#0 455109345#1 455109345#2 455109345#3 455109345#4"/>
    </vehicle>
    <vehicle id="32" depart="32.01">
        <route edges="73834059#4 -73834059#4 -73834059#3 -73834059#2 -73834059#1 -73834059#0 -73834073#2 210371184#0 210371184#1 73834074#3 73834051#0"/>
    </vehicle>
    <vehicle id="33" depart="33.02">
        <route edges="1231717883#0 1231717883#1 1231717883#2 191693979 192204261#5 192204261#6 192204261#7 192204261#8 192131963 -192131963"/>
    </vehicle>
    <vehicle id="35" depart="35.02">
        <route edges="-884807586 884807586 74327652#0 74327652#1"/>
    </vehicle>
    <vehicle id="36" depart="36.02">
        <route edges="73834073#2 73834073#3 73834073#4 73834069#0 73834069#1 175770857#0 175770857#1 175770857#2 545298845#1 545298845#2 545298845#3 1288431685#0 1288431685#1 1288431685#2 1288431685#3 706134222 1275581583 175770863#0 175770863#1"/>
    </vehicle>
    <vehicle id="37" depart="37.02">
        <route edges="441978139#1 441978139#2 1288431685#1 442142344#0 442142344#1 442142344#2 901958880 706135999#0 706135999#1 706135999#2 931083214#0 931083214#1 706136001 175770848 455109345#0 455109345#1 455109345#2 455109345#3 455109345#4 182013296#0 182013296#1 182013296#2 182013296#3 182013296#4 182013296#5"/>
    </vehicle>
    <vehicle id="38" depart="38.02">
        <route edges="73834101#1 -210371145 203193641#4 203193641#5 175770857#2 545298845#1 545298845#2 545298845#3 1288431685#0 1288431685#1 1288431685#2 1288431685#3 706134222 706134223 448461988 884679729 884679934#0 884679934#1 448461989#0 448461989#1 448461989#2 1280110610#0 1280110610#1 1280110610#2 706136003#0 706136003#1 455109356#0 455109356#1 455109356#2 455109354 192204261#0 192204261#1 192204261#2 192204261#3 192204261#4"/>
    </vehicle>
    <vehicle id="40" depart="40.02">
        <route edges="210371184#0 210371184#1 -73834074#2 73834057#0 73834057#1 -73834073#0 -210371157 203193641#2 203193641#3 203193641#4 203193641#5 175770857#2 545298845#1 545298845#2 545298845#3 1288431685#0 1288431685#1 442142344#0 442142344#1 442142344#2 901958880 706135999#0 706135999#1 706135999#2 931083214#0 931083214#1 706136001 175770848 455109345#0 455109345#1 455109345#2 455109345#3 455109345#4 182013296#0 182013296#1 182013296#2 182013296#3 182013296#4 182013296#5 182013296#6 182013296#7 182013296#8 182013296#9 182013296#10 384953198 192131963 1324303368#1 1324303368#2"/>
    </vehicle>
    <vehicle id="44" depart="44.02">
        <route edges="-73834053 210371184#1 -73834074#2 73834057#0 73834057#1 73834073#1 73834073#2 73834059#0 73834059#1 -210371132"/>
    </vehicle>
    <vehicle id="45" depart="45.02">
        <route edges="-73834059#3 -73834059#2 -73834059#1 -73834059#0 73834073#3 73834073#4 73834069#0 73834069#1 25776902#2 25776902#3 930827959 441978139#0 441978139#1"/>
    </vehicle>
    <vehicle id="46" depart="46.02">
        <route edges="706136004#1 706136003#1 455109356#0 455109356#1 455109356#2 455109354 192204261#0 192204261#1 192204261#2 192204261#3 192204261#4 192204261#5 192204261#6 -191693988#1 -191693988#0 191693988#0"/>
    </vehicle>
    <vehicle id="55" depart="55.03">
        <route edges="73834073#2 73834073#3 73834073#4 73834069#0 73834069#1 25776902#2 25776902#3 930827959 706136002#0 706136002#1 901958880 706135999#0 706135999#1 706135999#2 931083214#0 931083214#1 706136001 175770848 455109345#0 455109345#1 455109345#2 455109345#3 455109345#4 182013296#0 182013296#1 182013296#2 182013296#3 182013296#4 182013296#5 182013296#6 182013296#7 182013296#8 182013296#9 182013296#10 384953198 192131963 1324303368#1 1324303368#2"/>
    </vehicle>
    <vehicle id="57" depart="57.03">
        <route edges="73834101#1 73834101#2 73834073#0 73834073#1 73834073#2 73834073#3"/>
    </vehicle>
    <vehicle id="58" depart="58.03">
        <route edges="175770857#0 175770857#1 175770857#2 545298845#1 545298845#2 545298845#3 1288431685#0 1288431685#1 442142344#0 442142344#1"/>
    </vehicle>
    <vehicle id="64" depart="64.03">
        <route edges="73834073#3 -73834073#3 73834059#0 73834059#1 73834059#2 73834059#3 73834059#4 73834059#5"/>
    </vehicle>
    <vehicle id="68" depart="68.03">
        <route edges="-443968881#1 -443968881#0 191693988#1 192204261#7 192204261#8 192204261#9 695799544#0 695799544#1"/>
    </vehicle>
    <vehicle id="73" depart="73.03">
        <route edges="210371147 -73834059#3 -73834059#2 -73834059#1 -73834059#0 -73834073#2 210371184#0 210371184#1 -73834074#2 -73834074#1 73834056 529788256"/>
    </vehicle>
    <vehicle id="77" depart="77.04">
        <route edges="-73834059#5 -73834059#4 -73834059#3 -73834059#2 -73834059#1 -73834059#0 -73834073#2 -73834073#1 -73834073#0 -210371157 203193641#2 203193641#3 203193641#4 203193641#5 175770857#2 545298845#1 545298845#2 545298845#3 1288431685#0 1288431685#1 442142344#0 442142344#1 442142344#2 901958880 706135999#0 706135999#1 706135999#2 931083214#0 931083214#1 706136001 175770848 455109345#0 455109345#1 455109345#2 455109345#3 455109345#4 182013296#0 182013296#1 182013296#2 182013296#3 182013296#4 182013296#5 182013296#6 182013296#7 182013296#8 182013296#9 182013296#10 1217398683"/>
    </vehicle>
    <vehicle id="80" depart="80.04">
        <route edges="-529788256 -73834056 73834074#1 73834057#0 73834057#1 73834073#1 73834073#2 73834073#3 73834073#4 73834069#0 73834069#1 25776902#2 25776902#3 930827959 441978139#0 441978139#1 441978139#2"/>
    </vehicle>
    <vehicle id="82" depart="82.04">
        <route edges="73834069#0 73834069#1 175770857#0 73834101#0 73834101#1 73834101#2 73834073#0 73834073#1 73834073#2 73834059#0 73834059#1 73834059#2 73834059#3 73834059#4 73834059#5 -210371167"/>
    </vehicle>
    <vehicle id="86" depart="86.04">
        <route edges="203193641#0 203193641#1 210371157 73834073#0 73834073#1 210371184#0 210371184#1 73834074#3 73834051#0 73834052"/>
    </vehicle>
    <vehicle id="87" depart="87.04">
        <route edges="73834056 529788256 -529788256 -73834056 73834074#1 73834074#2 73834074#3 -73834074#3"/>
    </vehicle>
    <vehicle id="88" depart="88.04">
        <route edges="-73834059#0 -73834073#2 -73834073#1 -73834073#0 -210371157 203193641#2 203193641#3 203193641#4 203193641#5 175770857#2 545298845#1 545298845#2 545298845#3 1288431685#0 1288431685#1 442142344#0 442142344#1 442142344#2 901958880 706135999#0 706135999#1 706135999#2 931083214#0 931083214#1 706136001 175770848 455109345#0 455109345#1 455109345#2 455109345#3 455109345#4 191694238"/>
    </vehicle>
    <vehicle id="89" depart="89.04">
        <route edges="192131963 1324303368#1 1324303368#2 1324303368#3 191693979 192204261#5 192204261#6"/>
    </vehicle>
    <vehicle id="98" depart="98.04">
        <route edges="210371167 -73834059#5 -73834059#4 -73834059#3 -210371142"/>
    </vehicle>
    <vehicle id="101" depart="101.05">
        <route edges="73834059#5 -210371167 210371167 -73834059#5 -73834059#4 -73834059#3 -73834059#2 -73834059#1 -73834059#0 73834073#3 -73834073#3"/>
    </vehicle>
    <vehicle id="104" depart="104.05">
        <route edges="182013296#4 182013296#5 182013296#6 182013296#7 182013296#8 182013296#9 182013296#10 384953198 192131963 1324303368#1 -443968881#1 983547240"/>
    </vehicle>
    <vehicle id="106" depart="106.05">
        <route edges="192204261#6 -191693988#1 191693988#1"/>
    </vehicle>
    <vehicle id="107" depart="107.05">
        <route edges="826238560#0 826238560#1 826238560#2 208969532#3 884679934#0 884679934#1 991667825#0 991667825#1"/>
    </vehicle>
    <vehicle id="108" depart="108.05">
        <route edges="210371174 -73834059#0 -73834073#2 -73834073#1 -73834073#0 -210371157 203193641#2 203193641#3 203193641#4 203193641#5 175770857#2 545298845#1 545298845#2 545298845#3 1288431685#0 1288431685#1 1288431685#2 1288431685#3 706134222 706134223 448461988 884679729 884679934#0 884679934#1 448461989#0 448461989#1 448461989#2 1280110610#0 1280110610#1 1280110610#2 706136003#0 706136003#1 455109356#0 455109356#1 455109356#2 455109356#3 455109356#4 455109356#5"/>
    </vehicle>
    <vehicle id="109" depart="109.05">
        <route edges="-73834073#4 73834073#4 73834069#0 73834069#1 175770857#0"/>
    </vehicle>
    <vehicle id="115" depart="115.05">
        <route edges="-73834051#1 -73834051#0 -73834074#3 -73834074#2"/>
    </vehicle>
    <vehicle id="126" depart="126.06">
        <route edges="-529788256 -73834056 73834074#1 73834057#0 73834057#1 -73834073#0 -210371157 203193641#2 203193641#3 203193641#4 203193641#5 175770857#2 545298845#1 545298845#2 545298845#3 1288431685#0 1288431685#1 1288431685#2 1288431685#3 706134222 706134223 448461988 884679729 884679934#0 884679934#1 448461989#0 448461989#1 448461989#2 1280110610#0 1280110610#1 1280110610#2 706136003#0 706136003#1 455109356#0 455109356#1 455109356#2 455109354 192204261#0 192204261#1 192204261#2 192204261#3 192204261#4"/>
    </vehicle>
    <vehicle id="127" depart="127.06">
        <route edges="991667825#1 991667825#2"/>
    </vehicle>
    <vehicle id="130" depart="130.06">
        <route edges="73834073#3 73834073#4 73834073#5"/>
    </vehicle>
    <vehicle id="132" depart="132.06">
        <route edges="73834059#2 -73834059#2 -73834059#1 -73834059#0 -73834073#2 -73834073#1 -73834073#0 -210371157 203193641#2 203193641#3 203193641#4 203193641#5 175770857#2 545298845#1 545298845#2 545298845#3 1288431685#0 1288431685#1 1288431685#2 1288431685#3 706134222 706134223 448461988 884679729 884679934#0 884679934#1 448461989#0 448461989#1 448461989#2 1280110610#0 1280110610#1 1280110610#2 706136003#0 706136003#1 455109356#0 455109356#1"/>
    </vehicle>
    <vehicle id="134" depart="134.06">
        <route edges="441978139#1 441978139#2 1288431685#1 1288431685#2 1288431685#3 706134222 706134223 448461988 884679729 884679934#0 884679934#1 448461989#0 448461989#1 448461989#2 1280110610#0 1280110610#1 1280110610#2 706136003#0 706136003#1 455109356#0 455109356#1 455109356#2 455109354 192204261#0 192204261#1 192204261#2 192204261#3 192204261#4 -191693979 -1231717883#2 -1231717883#1"/>
    </vehicle>
    <vehicle id="135" depart="135.06">
        <route edges="73834057#1 73834073#1 73834073#2 73834073#3 73834073#4 73834069#0 73834069#1 175770857#0"/>
    </vehicle>
    <vehicle id="137" depart="137.06">
        <route edges="-73834068 73834068 -73834073#5 -73834073#4 -73834073#3 -73834073#2 210371184#0 210371184#1 -73834074#2 73834057#0 -73834058"/>
    </vehicle>
    <vehicle id="138" depart="138.06">
        <route edges="-73834059#2 -73834059#1 -73834059#0 73834073#3 73834073#4 73834069#0 73834069#1 25776902#2"/>
    </vehicle>
    <vehicle id="139" depart="139.06">
        <route edges="175770847#0 175770847#1 175770847#2 175770847#3 175770848 706136000 930827959 441978139#0 441978139#1 441978139#2 1288431685#1 1288431685#2 1288431685#3 706134222 706134223 448461988 884679729 884679934#0 884679934#1 448461989#0 448461989#1 448461989#2 1280110610#0 1280110610#1 1280110610#2 706136003#0 706136003#1 971056666 545298860 545298845#0 545298845#1 545298845#2 4294743#0 4294743#1"/>
    </vehicle>
    <vehicle id="142" depart="142.06">
        <route edges="203193641#4 204882900 73834101#1 73834101#2 73834073#0 73834073#1 73834073#2 73834073#3 73834073#4 73834069#0 73834069#1 175770857#0 73834101#0"/>
    </vehicle>
    <vehicle id="143" depart="143.07">
        <route edges="73834059#4 -73834059#4 -73834059#3 -73834059#2 -73834059#1 -73834059#0 -73834073#2 -73834073#1 -73834073#0 -210371157 203193641#2 203193641#3 203193641#4 203193641#5 175770857#2 545298845#1 545298845#2 545298845#3 1288431685#0 1288431685#1 442142344#0 442142344#1 442142344#2 901958880 706135999#0 706135999#1 706135999#2 931083214#0 931083214#1 706136001 175770848 455109345#0 455109345#1 455109345#2 455109345#3 455109345#4 182013296#0 182013296#1 182013296#2 182013296#3 182013296#4 182013296#5 182013296#6 182013296#7 182013296#8 182013296#9 182013296#10 384953198 -384953198"/>
    </vehicle>
    <vehicle id="148" depart="148.07">
        <route edges="192204261#0 192204261#1 192204261#2 192204261#3 192204261#4 -191693979 -1231717883#2"/>
    </vehicle>
    <vehicle id="149" depart="149.07">
        <route edges="-73834051#0 -73834074#3 -73834074#2 73834057#0 73834057#1 73834073#1 73834073#2 73834073#3 73834073#4 73834073#5 73834073#6"/>
    </vehicle>
    <vehicle id="150" depart="150.07">
        <route edges="73834074#3 -73834074#3 -73834074#2 73834057#0 73834057#1 73834073#1 210371184#0 210371184#1"/>
    </vehicle>
    <vehicle id="152" depart="152.07">
        <route edges="-73834073#2 73834073#2 73834059#0 73834059#1 -73834059#1"/>
    </vehicle>
    <vehicle id="161" depart="161.07">
        <route edges="73834056 529788256 -529788256 -73834056 73834074#1 73834057#0 73834057#1 73834073#1 73834073#2 73834073#3 73834073#4 73834073#5 73834073#6"/>
    </vehicle>
    <vehicle id="164" depart="164.07">
        <route edges="73834050 -73834073#3 -73834073#2 73834073#2"/>
    </vehicle>
    <vehicle id="165" depart="165.08">
        <route edges="73834056 529788256 -529788256 -73834056 73834074#1 73834057#0 73834057#1 -73834073#0 -210371157 203193641#2 203193641#3 203193641#4 203193641#5 175770857#2 545298845#1 545298845#2 545298845#3 1288431685#0 1288431685#1 442142344#0 442142344#1 442142344#2 901958880 706135999#0 706135999#1 706135999#2 931083214#0 931083214#1 706136001 175770848 455109345#0 455109345#1 455109345#2 455109345#3 455109345#4 182013296#0 182013296#1 182013296#2 182013296#3 182013296#4 182013296#5 182013296#6 182013296#7 182013296#8 182013296#9 182013296#10 384953198 192131963 1324303368#1 1324303368#2 1324303368#3"/>
    </vehicle>
    <vehicle id="167" depart="167.08">
        <route edges="73834073#1 -73834073#1 -73834073#0 73834073#0"/>
    </vehicle>
    <vehicle id="168" depart="168.08">
        <route edges="1062579398 73834068 -73834073#5 -73834073#4 -73834073#3 73834059#0 73834059#1 73834059#2"/>
    </vehicle>
    <vehicle id="170" depart="170.08">
        <route edges="706136005 706136004#0 706136004#1 706136003#1 455109356#0 455109356#1 455109356#2 455109354 192204261#0 192204261#1 192204261#2 192204261#3 192204261#4 192204261#5 192204261#6 192204261#7 192204261#8 -384953198 1217398683"/>
    </vehicle>
    <vehicle id="173" depart="173.08">
        <route edges="826238560#2 208969532#3 884679934#0 884679934#1 448461989#0 448461989#1 448461989#2 175770847#0 175770847#1 175770847#2"/>
    </vehicle>
    <vehicle id="178" depart="178.08">
        <route edges="826238560#1 826238560#2 208969532#3 884679934#0 884679934#1 448461989#0 448461989#1 448461989#2 1280110610#0 1280110610#1 1280110610#2 706136003#0 706136003#1 455109356#0 455109356#1 455109356#2 455109354 192204261#0 192204261#1 192204261#2 192204261#3 192204261#4 192204261#5 192204261#6 -191693988#1 -191693988#0 1324303368#3"/>
    </vehicle>
    <vehicle id="185" depart="185.08">
        <route edges="210371147 -73834059#3 -73834059#2 -73834059#1 -73834059#0 -73834073#2 -73834073#1 -73834073#0 -210371157 203193641#2 203193641#3 203193641#4 203193641#5 175770857#2 545298845#1 545298845#2 545298845#3 1288431685#0 1288431685#1 1288431685#2 1288431685#3 706134222 706134223 448461988 884679729 884679934#0 884679934#1 448461989#0 448461989#1 448461989#2 1280110610#0 1280110610#1 1280110610#2 706136003#0 706136003#1 455109356#0 455109356#1 455109356#2 455109356#3 455109356#4 455109356#5"/>
    </vehicle>
    <vehicle id="191" depart="191.09">
        <route edges="175770857#2 545298845#1 545298845#2 545298845#3 1288431685#0 1288431685#1 442142344#0 442142344#1 442142344#2 901958880 706135999#0 706135999#1 706135999#2 931083214#0 931083214#1 706136001 175770848 455109345#0 455109345#1 455109345#2 455109345#3 455109345#4 182013296#0 182013296#1 182013296#2 182013296#3 182013296#4 182013296#5 182013296#6 182013296#7 182013296#8"/>
    </vehicle>
    <vehicle id="193" depart="193.09">
        <route edges="-73834061 73834069#1 25776902#2 25776902#3 930827959 706136002#0 706136002#1 901958880 706135999#0 706135999#1 706135999#2 931083214#0 931083214#1 706136001 175770848 455109345#0 455109345#1 455109345#2 455109345#3 455109345#4 182013296#0 182013296#1 182013296#2 182013296#3 182013296#4 182013296#5 182013296#6 182013296#7 182013296#8 182013296#9 182013296#10 384953198 192131963 1324303368#1 1324303368#2 191693988#0"/>
    </vehicle>
    <vehicle id="195" depart="195.09">
        <route edges="73834074#2 -73834074#2 73834057#0 73834057#1 -73834073#0 -210371157 203193641#2 203193641#3 203193641#4 203193641#5 175770857#2 545298845#1 545298845#2 545298845#3 1288431685#0 1288431685#1 442142344#0 442142344#1 442142344#2 901958880 4295393#0"/>
    </vehicle>
    <vehicle id="199" depart="199.09">
        <route edges="441978139#1 441978139#2 1288431685#1 1288431685#2 1288431685#3 706134222 706134223 448461988 884679729 884679934#0 884679934#1 448461989#0 448461989#1 448461989#2 1280110610#0 1280110610#1 1280110610#2 706136003#0 706136003#1 455109356#0 455109356#1 455109356#2 455109354 192204261#0 192204261#1 192204261#2 192204261#3 192204261#4 192204261#5"/>
    </vehicle>
    <vehicle id="201" depart="201.09">
        <route edges="203193641#0 203193641#1 210371157 73834073#0 73834073#1 210371184#0 210371184#1 73834074#3 73834074#4"/>
    </vehicle>
    <vehicle id="209" depart="209.10">
        <route edges="73834059#5 -210371167"/>
    </vehicle>
    <vehicle id="213" depart="213.10">
        <route edges="441978139#1 441978139#2 1288431685#1 1288431685#2 1288431685#3 706134222 706134223 448461988 884679729 884679934#0 884679934#1 448461989#0 448461989#1 448461989#2 1280110610#0 1280110610#1 1280110610#2 706136003#0 706136003#1 455109356#0 455109356#1 455109356#2 455109354 192204261#0 192204261#1 192204261#2 192204261#3 192204261#4 -191693979 -1231717883#2 -1231717883#1"/>
    </vehicle>
    <vehicle id="215" depart="215.10">
        <route edges="-73834059#2 -73834059#1 -73834059#0 -73834073#2 -73834073#1 -73834073#0 -210371157 203193641#2 203193641#3 203193641#4 203193641#5 175770857#2 545298845#1 545298845#2 545298845#3 1288431685#0 1288431685#1 442142344#0 442142344#1 442142344#2 901958880 706135999#0 706135999#1 706135999#2 931083214#0 931083214#1 706136001 175770848 455109345#0 455109345#1 455109345#2 455109345#3 455109345#4 182013296#0 182013296#1 182013296#2 182013296#3 182013296#4 182013296#5 182013296#6 182013296#7 182013296#8 182013296#9 182013296#10 384953198 192131963 1324303368#1 1324303368#2 191693988#0 191693988#1"/>
    </vehicle>
    <vehicle id="217" depart="217.10">
        <route edges="210371121 320913805 73834073#1 73834073#2 73834059#0 73834059#1 73834059#2 -210371142"/>
    </vehicle>
    <vehicle id="220" depart="220.10">
        <route edges="442142344#1 442142344#2 901958880 706135999#0 706135999#1 706135999#2 931083214#0 931083214#1 706136001 175770848 706136000 930827959 441978139#0 441978139#1 441978139#2 1288431685#1 1288431685#2 1288431685#3 706134222 706134223 448461988 884679729 884679934#0 884679934#1 991667825#0"/>
    </vehicle>
    <vehicle id="222" depart="222.10">
        <route edges="73834074#0 73834074#1 73834057#0 73834057#1 -73834073#0 -210371157 203193641#2 203193641#3 203193641#4 203193641#5 175770857#2 545298845#1 545298845#2 545298845#3 1288431685#0 1288431685#1 442142344#0 442142344#1 442142344#2 901958880 4295393#0"/>
    </vehicle>
    <vehicle id="226" depart="226.10">
        <route edges="203193641#1 203193641#2 203193641#3 203193641#4 203193641#5 175770857#2 545298845#1 545298845#2 545298845#3 1288431685#0 1288431685#1 442142344#0 442142344#1 442142344#2 901958880 706135999#0 706135999#1 706135999#2 931083214#0 931083214#1 706136001 175770848 455109345#0 455109345#1 455109345#2 455109345#3 455109345#4 182013296#0 182013296#1 182013296#2 182013296#3 182013296#4 182013296#5 182013296#6 182013296#7 182013296#8 182013296#9 182013296#10 384953198 192131963 1324303368#1"/>
    </vehicle>
    <vehicle id="230" depart="230.10">
        <route edges="-73834051#0 -73834074#3 -73834074#2 73834057#0 73834057#1 -73834073#0 -210371157 203193641#2 203193641#3 203193641#4 203193641#5 175770857#2 545298845#1 545298845#2 545298845#3 1288431685#0 1288431685#1 1288431685#2 1288431685#3 706134222 706134223 448461988 884679729 884679934#0 884679934#1 448461989#0 448461989#1 448461989#2 175770847#0 175770847#1 175770847#2 175770847#3"/>
    </vehicle>
    <vehicle id="232" depart="232.11">
        <route edges="210371149 -73834059#4"/>
    </vehicle>
    <vehicle id="238" depart="238.11">
        <route edges="25776902#3 930827959 441978139#0 441978139#1 441978139#2 1288431685#1 1288431685#2 1288431685#3 706134222 706134223 448461988 884679729 884679934#0 884679934#1 448461989#0 448461989#1 448461989#2 1280110610#0 1280110610#1 1280110610#2 706136003#0 706136003#1 455109356#0 455109356#1 455109356#2 455109354"/>
    </vehicle>
    <vehicle id="239" depart="239.11">
        <route edges="73834069#0 73834069#1 25776902#2 25776902#3 930827959 706136002#0 706136002#1 901958880 4295393#0 4295393#1 28670043#0 28670043#1 706134221"/>
    </vehicle>
    <vehicle id="240" depart="240.11">
        <route edges="182013296#4 182013296#5 182013296#6 182013296#7 182013296#8 182013296#9 182013296#10 384953198 192131963 1324303368#1 1324303368#2 1324303368#3 -1231717883#2 -1231717883#1"/>
    </vehicle>
    <vehicle id="241" depart="241.11">
        <route edges="182013296#0 182013296#1 182013296#2 182013296#3 182013296#4 182013296#5 182013296#6 182013296#7 182013296#8 182013296#9 182013296#10 384953198 192204261#9 695799544#0"/>
    </vehicle>
    <vehicle id="244" depart="244.11">
        <route edges="210371157 -210371157 203193641#2 203193641#3 203193641#4 203193641#5 175770857#2 545298845#1 545298845#2 4294743#0"/>
    </vehicle>
    <vehicle id="246" depart="246.11">
        <route edges="192204261#2 192204261#3 192204261#4 192204261#5 192204261#6 -191693988#1"/>
    </vehicle>
    <vehicle id="253" depart="253.12">
        <route edges="-73834068 73834068 -73834073#5 73834069#0 73834069#1 175770857#0 175770857#1 175770857#2 545298845#1 545298845#2 545298845#3 1288431685#0 1288431685#1 1288431685#2 1288431685#3 706134222 706134223 448461988 884679729 884679934#0 884679934#1 448461989#0 448461989#1 448461989#2 1280110610#0 1280110610#1 1280110610#2 706136003#0 706136003#1 455109356#0 455109356#1 455109356#2 455109354 192204261#0 192204261#1 192204261#2 192204261#3 192204261#4"/>
    </vehicle>
    <vehicle id="254" depart="254.12">
        <route edges="-210371157 203193641#2 203193641#3 203193641#4 203193641#5 175770857#2 545298845#1 545298845#2 545298845#3 1288431685#0 1288431685#1 442142344#0 442142344#1 442142344#2 901958880 706135999#0 706135999#1 706135999#2 931083214#0 931083214#1 706136001 175770848 455109345#0 455109345#1 455109345#2 455109345#3 455109345#4 182013296#0 182013296#1 182013296#2"/>
    </vehicle>
    <vehicle id="256" depart="256.12">
        <route edges="561521678#1 561521678#2 561521678#3 561521678#4 706134222 706134223 448461988 884679729 884679934#0 884679934#1 448461989#0 448461989#1 448461989#2 175770847#0 175770847#1 175770847#2 175770847#3 175770848 455109345#0 455109345#1 455109345#2 455109345#3 455109345#4 182013296#0 182013296#1 182013296#2"/>
    </vehicle>
    <vehicle id="262" depart="262.12">
        <route edges="441978139#0 441978139#1 441978139#2 1288431685#1 442142344#0 442142344#1 442142344#2 901958880 706135999#0 706135999#1 706135999#2 931083214#0 931083214#1 706136001 175770848 455109345#0 455109345#1 455109345#2 455109345#3 455109345#4 182013296#0 182013296#1 182013296#2 182013296#3 182013296#4 182013296#5 182013296#6 182013296#7 182013296#8 182013296#9 182013296#10 384953198 192204261#9 695799544#0"/>
    </vehicle>
    <vehicle id="263" depart="263.12">