<?xml version="1.0" encoding="UTF-8"?>

<!-- generated on 2025-06-06 00:43:32.513137 by randomTrips.py UNKNOWN
<configuration>
    <net-file value="map.net.xml"/>
    <route-file value="map.rou.xml"/>
    <end value="600.0"/>
    <insertion-density value="60.0"/>
</configuration>
-->

<!-- generated on 2025-06-06 00:43:32 by Eclipse SUMO duarouter Version 1.23.1
<duarouterConfiguration xmlns:xsi="http://www.w3.org/2001/XMLSchema-instance" xsi:noNamespaceSchemaLocation="http://sumo.dlr.de/xsd/duarouterConfiguration.xsd">

    <input>
        <net-file value="map.net.xml"/>
        <route-files value="trips.trips.xml"/>
    </input>

    <output>
        <output-file value="map.rou.xml"/>
        <alternatives-output value="NUL"/>
    </output>

    <time>
        <begin value="0.0"/>
        <end value="600.0"/>
    </time>

    <report>
        <no-warnings value="true"/>
        <ignore-errors value="true"/>
        <no-step-log value="true"/>
    </report>

</duarouterConfiguration>
-->

<routes xmlns:xsi="http://www.w3.org/2001/XMLSchema-instance" xsi:noNamespaceSchemaLocation="http://sumo.dlr.de/xsd/routes_file.xsd">
    <vehicle id="0" depart="0.00">
        <route edges="4316293#5 4316293#6 4316293#7 4316293#8 892676285 892676282#0 892676282#1 884218508#2 884218508#3 884218508#4 884218508#5 884218507 469770778#0 469770778#1 469770778#2 469770778#3 205617219#0 205617219#1 -205617224#1 -205617224#0 -182328360"/>
    </vehicle>
    <vehicle id="2" depart="2.12">
        <route edges="478136565#1 478136565#2 181728253#2 -72859070#3 -72859070#2 -72859070#1 -72859070#0 1193972632#0 1193972632#1 1193972632#2 946205671#1 946205671#2 946205671#3 591383994#0 591383994#1 591383994#2 591383994#3 591383994#4 591383994#5 591383994#6 591383994#7 591383994#8 591383994#9 884216801#3 884216801#4 884216800 884218508#0 884218508#1 884218508#2 884218508#3 884218508#4 884218508#5 884218507 469770778#0 469770778#1 469770778#2 469770778#3 205617219#0 205617219#1 -205617224#1 -205617224#0 -374343869#4 -374343869#3 -374343869#2 478131326#0 478131326#1 478131326#2"/>
    </vehicle>
    <vehicle id="4" depart="4.24">
        <route edges="176164233#9 884218503#2 176164231#0 176164231#1 176164231#2 176164231#3 176164231#4 176164231#5 176164231#6 176164231#7 176164231#8 176164231#9 176164231#10 176164231#11 36471786#2 36471786#3 36471786#4 1028641827 459910929#0 459910929#1 -191870912#6 -191870912#5 -191870912#4 -191870912#3 -191870912#2 -191870912#1"/>
    </vehicle>
    <vehicle id="5" depart="5.30">
        <route edges="-491385092#4 491385092#4 -491385089#1 192251093#0 192251093#1 192251093#2 192251093#3 192251093#4 192251093#5 140039130#2 210304201#2 491363276 140039129#1 140039129#2 140039129#3 210304109#3 210304109#4 491823943 210304200#1"/>
    </vehicle>
    <vehicle id="6" depart="6.36">
        <route edges="-191713406 576561276#1 576561276#2 576561276#3 769643032#6 769643032#0 769643032#1 769643032#2 459910463#0 459910463#1 459910463#2 175770931#2 1152953479#1 1152953479#2 459910930 140039131 191870725#0 191870725#1 191870725#2 191870725#3 191870725#4 191870725#5 191870725#6 -1230821446#2 -1230821446#1 -491361609"/>
    </vehicle>
    <vehicle id="7" depart="7.43">
        <route edges="4316765#2 4316765#3 465869543#0 465869543#1 465869543#2 465869543#3 772827390 772827389#1 4316765#0 182328360 -374343869#4 -374343869#3 -374343869#2 374343869#2"/>
    </vehicle>
    <vehicle id="21" depart="22.28">
        <route edges="-583986602#1 583986602#1 583986602#2 946205671#0 946205671#1 946205671#2 946205671#3 591383994#0 591383994#1 591383994#2 591383994#3 591383994#4 591383994#5 591383994#6 591383994#7 591383994#8 591383994#9 884216801#3 884216801#4 884216800 884218508#0 884218508#1 884218508#2 4293070#0 4293070#1 4293070#2 4293070#3 4293070#4 4293070#5 4293070#6 4293070#7 4293070#8 4293070#9 4293070#10 4293070#11 4293070#12 4293070#13 4293070#14 4293070#15 4293070#16 4293070#17 4293070#18 182329167#0 182329167#1 203193279#0 203193279#1 203193279#2 1062579400"/>
    </vehicle>
    <vehicle id="22" depart="23.34">
        <route edges="-204881558#12 204881558#12 884218508#4 884218508#5 884218507 469770778#0 469770778#1 469770778#2 469770778#3 205617219#0 205617219#1 -205617224#1 -205617224#0 -374343869#4 -374343869#3 -374343869#2 -374343869#1 -374343869#0 -708422840"/>
    </vehicle>
    <vehicle id="25" depart="26.52">
        <route edges="140039129#0 140039129#1 140039129#2 140039129#3 210304109#3 36471786#0 36471786#1 36471786#2 36471786#3 36471786#4 1028641827 57133747#0 57133747#1 57133747#2 57133747#3 -491375094"/>
    </vehicle>
    <vehicle id="28" depart="29.70">
        <route edges="-478136564#1 -478136564#0 478136564#0 478136564#1 478136564#2 478136565#1 478136565#2 181728253#2 181728253#3 181728253#4 689545646#1 140039128#0 422613722 431223669 -1004930992 -142252343#1 140039130#0 140039130#1 -192251093#5 -192251093#4 -192251093#3 -192251093#2 -192251093#1 -192251093#0 491385089#1 -491385092#4 -491385092#3 -491385092#2 -491385092#1 -491385092#0 491385092#0"/>
    </vehicle>
    <vehicle id="33" depart="35.00">
        <route edges="-583986602#2 -583986602#1 -583986602#0 -807534248#1 -807534248#0 -72859071#0 72859070#3 181728253#3 181728253#4 689545646#1 140039128#0 422613722 431223669 -1004930992 -142252343#1 140039130#0 140039130#1 140039130#2 210304201#2 491363276 140039129#1 140039129#2 140039129#3 210304109#3 36471786#0 36471786#1 36471786#2 36471786#3 36471786#4 1028641827 459910929#0 459910929#1 -191870912#6 -191870912#5 -191870912#4 -191870912#3"/>
    </vehicle>
    <vehicle id="34" depart="36.06">
        <route edges="-879161322#0 182013260#0 182013260#1 769643032#1 769643032#2 459910463#0 459910463#1 459910463#2 175770931#2 1152953479#1 1152953479#2 1152953479#3 884218504 884218503#0 884218503#1 884218503#2 181734847#0 140039129#0 140039129#1 -491374361#1 -833164210"/>
    </vehicle>
    <vehicle id="36" depart="38.19">
        <route edges="72859071#0 -72859071#0 72859070#3 181728253#3 181728253#4 689545646#1 140039128#0 422613722 431223669 -1004930992 -142252343#1 140039130#0 140039130#1 140039130#2 210304201#2 491363276 140039129#1 140039129#2 140039129#3 210304109#3 36471786#0 36471786#1 36471786#2 36471786#3 36471786#4 1028641827 459910929#0 459910929#1 -191870912#6 191870725#5 191870725#6 191870725#7 191870725#8 1231902851#0 1231902851#1"/>
    </vehicle>
    <vehicle id="40" depart="42.43">
        <route edges="210304194#0 491385092#0 491385092#1 491385092#2 491385092#3 491385092#4 -491385089#1 192251093#0 192251093#1 192251093#2 192251093#3 192251093#4 192251093#5 140039130#2 210304201#2 491363276 140039129#1 140039129#2 140039129#3 210304109#3 210304109#4 491823943 210304200#1 -833161572#5 -833161572#4 -833161572#3 -833161572#2"/>
    </vehicle>
    <vehicle id="41" depart="43.49">
        <route edges="36471786#0 -36471786#0 210304109#4 210304109#5 210304109#0 210304109#1 210304201#0 491385097#0 833161572#1"/>
    </vehicle>
    <vehicle id="42" depart="44.55">
        <route edges="176164231#4 176164231#5 176164231#6 176164231#7 176164231#8 176164231#9 176164231#10 176164231#11 -36471786#1 -36471786#0 210304109#4 491823943 210304194#0 491385092#0 491385092#1 -491385092#1"/>
    </vehicle>
    <vehicle id="46" depart="48.79">
        <route edges="491823943 210304200#1 210304200#2 210304109#1 210304109#2 210304109#3 36471786#0 36471786#1 36471786#2 36471786#3 36471786#4 1028641827 459910929#0 459910929#1 -191870912#6 -191870912#5 -191870912#4 -191870912#3 -191870912#2 -191870912#1 -191870912#0 -191871528 -1072277084#1 -1072277084#0 -491358693#0 191870916#0"/>
    </vehicle>
    <vehicle id="47" depart="49.85">
        <route edges="-192251097#1 946192267 192251092 882674433#1 142252343#0 140039130#0 140039130#1 140039130#2 210304201#2 491363276 140039129#1 140039129#2 140039129#3 210304109#3 36471786#0 36471786#1 36471786#2 176164233#0 176164233#1 176164233#2 176164233#3 176164233#4 176164233#5 176164233#6 176164233#7 176164233#8 176164233#9 884218503#2 181734847#0"/>
    </vehicle>
    <vehicle id="48" depart="50.92">
        <route edges="946205671#2 946205671#3 591383994#0 591383994#1 591383994#2 591383994#3 591383994#4 591383994#5 591383994#6 591383994#7 591383994#8 591383994#9 884216801#3 884216801#4 884216800 884218508#0 884218508#1 884218508#2 4293070#0 4293070#1 4293070#2 4293070#3 4293070#4 4293070#5 4293070#6 4293070#7 4293070#8 4293070#9 4293070#10 4293070#11 4293070#12 4293070#13 4293070#14 4293070#15 4293070#16 4293070#17 4293070#18 182329167#0 182329167#1 203193279#0 203193279#1 218990841"/>
    </vehicle>
    <vehicle id="49" depart="51.98">
        <route edges="892676282#1 884218508#2 884218508#3 884218508#4 884218508#5 884218507 469770778#0 469770778#1 469770778#2 469770778#3 469770778#4 469770778#5 772827389#0 772827389#1 4316765#0 4316765#1 4316765#2 4316765#3 465869543#0 465869543#1 465869543#2 769675541"/>
    </vehicle>
    <vehicle id="50" depart="53.04">
        <route edges="-1230821446#2 -1230821446#1 1230821446#1 1230821446#2 191870725#7 191870725#8 1028641828 -36471786#4 -36471786#3 -36471786#2 -36471786#1 -36471786#0 210304109#4 210304109#5 210304109#0 210304109#1 210304201#0 210304201#1 210304201#2 491363276 140039129#1 -491374361#1 491374361#1"/>
    </vehicle>
    <vehicle id="51" depart="54.10">
        <route edges="459910463#1 459910463#2 175770931#2 1152953479#1 1152953479#2 459910930 140039131 191870725#0 191870725#1 191870725#2 191870725#3 191870725#4 191870725#5 191870725#6 191870725#7 191870725#8 1028641828 -36471786#4 -36471786#3 -36471786#2 36471786#2"/>
    </vehicle>
    <vehicle id="55" depart="58.34">
        <route edges="72859071#0 -72859071#0 72859070#3 181728253#3 181728253#4 689545646#1 140039128#0 422613722 431223669 -1004930992 -142252343#1 140039130#0 140039130#1 140039130#2 210304201#2 491363276 140039129#1 140039129#2 140039129#3 210304109#3 210304109#4 491823943 210304200#1 -833161572#5 -833161572#4 -833161572#3"/>
    </vehicle>
    <vehicle id="56" depart="59.40">
        <route edges="192131981 491358693#0 1072277084#0 1072277084#1 191871528 491358677 191871516 -191871516 -491358677"/>
    </vehicle>
    <vehicle id="57" depart="60.46">
        <route edges="872187796 872187797 4316765#2 4316765#3 465869543#0 465869543#1 465869543#2 465869543#3 772827390 772827389#1"/>
    </vehicle>
    <vehicle id="58" depart="61.52">
        <route edges="-807534463 -583986602#0 -807534248#1 -807534248#0 -72859071#0 72859070#3 181728253#3 181728253#4 689545646#1 140039128#0 422613722 431223669 -1004930992 -142252343#1 140039130#0 140039130#1 140039130#2 210304201#2 491363276 140039129#1 140039129#2 140039129#3 210304109#3 36471786#0 36471786#1 36471786#2 36471786#3 36471786#4 1028641827 459910929#0 459910929#1 459910929#2 140039131 462531823 769643032#2 459910463#0 459910463#1 459910463#2"/>
    </vehicle>
    <vehicle id="59" depart="62.58">
        <route edges="4293070#12 210304119 4316293#5 4316293#6 4316293#7 4316293#8 892676285 444587353 892676283 892676284#0 478131320#0 478131320#1 -478131320#1 -478131320#0"/>
    </vehicle>
    <vehicle id="60" depart="63.64">
        <route edges="491361609 1230821446#1 1230821446#2 191870725#7 191870725#8 1028641828 -36471786#4 -36471786#3 36471786#3 36471786#4"/>
    </vehicle>
    <vehicle id="62" depart="65.77">
        <route edges="-1004930992 -142252343#1 140039130#0 140039130#1 140039130#2 210304201#2 491363276 140039129#1 140039129#2"/>
    </vehicle>
    <vehicle id="63" depart="66.83">
        <route edges="-142252343#1 140039130#0 140039130#1 140039130#2 210304201#2 210304201#3 181734847#2 882674432 882674433#0 882674433#1"/>
    </vehicle>
    <vehicle id="67" depart="71.07">
        <route edges="-204881558#5 204881558#5 204881558#6 204881558#7"/>
    </vehicle>
    <vehicle id="70" depart="74.25">
        <route edges="191870916#0 191870916#1 191870916#2 191870916#3 -191871545 191870912#4 191870912#5 191870725#5 191870725#6 191870725#7 191870725#8 1028641828 -36471786#4 -36471786#3 -36471786#2 -36471786#1 -36471786#0 210304109#4 491823943 210304194#0 491385092#0 422610123"/>
    </vehicle>
    <vehicle id="71" depart="75.31">
        <route edges="-72859082 4316293#3 4316293#4 4316293#5 4316293#6 4316293#7 4316293#8 892676285 892676282#0 892676282#1 884218508#2 884218508#3 884218508#4 884218508#5 884218507 469770778#0 469770778#1 469770778#2 469770778#3 469770778#4 469770778#5 772827389#0 772827389#1 4316765#0 4316765#1 4316765#2 4316765#3 465869543#0 465869543#1 465869543#2 465869543#3 772827390"/>
    </vehicle>
    <vehicle id="74" depart="78.49">
        <route edges="-491374352#0 176164231#5 176164231#6 176164231#7 176164231#8 176164231#9 176164231#10 176164231#11 36471786#2 36471786#3 36471786#4 1028641827 459910929#0 459910929#1 -191870912#6 191870725#5 191870725#6 -1230821446#2 -1230821446#1 1230821446#1 1230821446#2"/>
    </vehicle>
    <vehicle id="75" depart="79.56">
        <route edges="946205671#1 946205671#2 946205671#3 591383994#0 591383994#1 591383994#2 591383994#3 591383994#4 591383994#5 591383994#6 591383994#7 591383994#8 591383994#9 884216801#3 884216801#4 884216800 884218508#0 884218508#1 884218508#2 884218508#3 884218508#4 884218508#5 884218507 469770778#0 469770778#1 469770778#2 469770778#3 469770778#4 469770778#5 772827389#0 772827389#1 4316765#0 4316765#1 4316765#2 4316765#3 465869543#0 465869543#1 465869543#2"/>
    </vehicle>
    <vehicle id="77" depart="81.68">
        <route edges="-36471786#4 -36471786#3 -36471786#2 -36471786#1 -36471786#0 210304109#4 210304109#5 210304109#0 210304109#1 210304201#0 491385097#0 491385097#1 -491385097#1 -491385097#0"/>
    </vehicle>
    <vehicle id="79" depart="83.80">
        <route edges="-583986602#2 -583986602#1 -583986602#0 -807534248#1 -807534248#0 -72859071#0 72859070#3 181728253#3 181728253#4 689545646#1 140039128#0 422613722 431223669 -1004930992 -142252343#1 140039130#0 140039130#1 -192251093#5 -192251093#4 -192251093#3 -192251093#2 -192251093#1 -192251093#0 491385089#1 -491385092#4 -491385092#3 -491385092#2 -491385092#1"/>
    </vehicle>
    <vehicle id="85" depart="90.16">
        <route edges="884216800 884218508#0 884218508#1 884218508#2 4293070#0 4293070#1 4293070#2 4293070#3"/>
    </vehicle>
    <vehicle id="89" depart="94.41">
        <route edges="181728253#0 181728253#1 181728253#2 -72859070#3 -72859070#2 -72859070#1 -72859070#0 1193972632#0 1193972632#1 1193972632#2 946205671#1 946205671#2 946205671#3 591383994#0 591383994#1 591383994#2 591383994#3 591383994#4 591383994#5 591383994#6 591383994#7 591383994#8 591383994#9 884216801#3 884216801#4 884216800 884218508#0 884218508#1 884218508#2 4293070#0 4293070#1 4293070#2 4293070#3 4293070#4 4293070#5 4293070#6 4293070#7 4293070#8 4293070#9 4293070#10 4293070#11 4293070#12 4293070#13 4293070#14 4293070#15 4293070#16 4293070#17 4293070#18 182329167#0 182329167#1 203193279#0 203193279#1 203193279#2 203193279#3 203193282"/>
    </vehicle>
    <vehicle id="90" depart="95.47">
        <route edges="478136563#0 478136563#1 -478136563#1 -478136563#0 478136565#2 181728253#2 -72859070#3 -72859070#2 -72859070#1 -72859070#0 1193972632#0 1193972632#1 1193972632#2 946205671#1 946205671#2 946205671#3 591383994#0 591383994#1 591383994#2 591383994#3 591383994#4 591383994#5 591383994#6 591383994#7 591383994#8 591383994#9 884216801#3 884216801#4 884216800 884218508#0 884218508#1 884218508#2 884218508#3 884218508#4 884218508#5 884218507 469770778#0 469770778#1 469770778#2 469770778#3 205617219#0 205617219#1 -205617224#1 -205617224#0 -374343869#4 -374343869#3 -374343869#2 478131326#0 478131324"/>
    </vehicle>
    <vehicle id="91" depart="96.53">
        <route edges="892676284#5 892676284#6 892676284#7 892676284#8 892676284#9 892676284#10 892676284#11 -1389294414 4316293#2 4316293#3 4316293#4 4316293#5 4316293#6 4316293#7 4316293#8 892676285 892676282#0 892676282#1 884218508#2 884218508#3 -204881558#12 -204881558#11 -204881558#10 -204881558#9 -204881558#8"/>
    </vehicle>
    <vehicle id="94" depart="99.71">
        <route edges="-491359996 191870725#2 191870725#3 191870725#4 191870725#5 191870725#6 191870725#7 191870725#8 1028641828 -36471786#4 -36471786#3 -36471786#2 -36471786#1 -36471786#0 210304109#4 491823943 210304194#0 491385092#0 491385092#1 491385092#2 491385092#3 491385092#4 -491385089#1 192251093#0 192251093#1 192251093#2 192251093#3"/>
    </vehicle>
    <vehicle id="102" depart="108.19">
        <route edges="191871519#0 191871519#1 -1231902851#1 -1231902851#0 1028641828 -36471786#4 -36471786#3 -36471786#2 -36471786#1 -36471786#0 210304109#4 491823943 210304194#0 491385092#0 491385092#1 491385092#2 491385092#3 491385092#4 -491385089#1"/>
    </vehicle>
    <vehicle id="106" depart="112.44">
        <route edges="191870725#7 1323585767 459910929#1 -191870912#6 -191870912#5 -191870912#4 -191870912#3 -191870912#2 -191870912#1 -191870912#0 -191871528 -1072277084#1 -1072277084#0 -491358693#0 191870916#0"/>
    </vehicle>
    <vehicle id="110" depart="116.68">
        <route edges="892676282#0 892676282#1 884218508#2 4293070#0 4293070#1 4293070#2 4293070#3 4293070#4 4293070#5 4293070#6 4293070#7 4293070#8"/>
    </vehicle>
    <vehicle id="111" depart="117.74">
        <route edges="204881558#4 204881558#5 204881558#6 204881558#7 204881558#8 204881558#9 204881558#10 204881558#11 204881558#12 884218508#4 884218508#5 884218507 469770778#0 469770778#1 469770778#2 469770778#3 205617219#0 205617219#1 205617224#2 552377544#3 552377544#4 552377544#5 552377544#6 552377544#7 552377544#8 552377544#9 552377544#10 552377544#11"/>
    </vehicle>
    <vehicle id="114" depart="120.92">
        <route edges="-478131320#1 -478131320#0 892676284#1 892676284#2 892676284#3 892676284#4 892676284#5 892676284#6 892676284#7 892676284#8 892676284#9 892676284#10 892676284#11 -1389294414 4316293#2 4316293#3 4316293#4 4316293#5 4316293#6 4316293#7 4316293#8 892676285 892676282#0 892676282#1 884218508#2"/>
    </vehicle>
    <vehicle id="116" depart="123.05">
        <route edges="374343869#2 -374343869#2 478131326#0"/>
    </vehicle>
    <vehicle id="122" depart="129.41">
        <route edges="-491374361#1 491374361#1 140039129#2 140039129#3 210304109#3 36471786#0 36471786#1 36471786#2 176164233#0 176164233#1 176164233#2 176164233#3 176164233#4 176164233#5 176164233#6 176164233#7 176164233#8 176164233#9 884218503#2 176164231#0 176164231#1 176164231#2 176164231#3 176164231#4 491374352#0 491374351"/>
    </vehicle>
    <vehicle id="127" depart="134.71">
        <route edges="946205671#3"/>
    </vehicle>
    <vehicle id="130" depart="137.90">
        <route edges="74487360 -72843711#2 -72843711#1 -72843711#0 182329167#1 203193279#0 203193279#1 203193279#2 203193279#3 552377544#0 552377544#1 552377544#2 552377544#3 552377544#4 807486034"/>
    </vehicle>
    <vehicle id="132" depart="140.02">
        <route edges="583986602#2 -583986602#2 -583986602#1 -583986602#0 -807534248#1 -807534248#0 -72859071#0 72859070#3 181728253#3 181728253#4 689545646#1 140039128#0 422613722 431223669 -1004930992 -142252343#1 140039130#0 140039130#1 140039130#2 210304201#2 491363276 140039129#1 140039129#2 140039129#3 210304109#3 36471786#0 36471786#1 36471786#2 36471786#3 36471786#4 1028641827 459910929#0 459910929#1 -191870912#6 -191870912#5 491359988 -491359995#1 491359995#1"/>
    </vehicle>
    <vehicle id="143" depart="151.69">
        <route edges="591383994#8 591383994#9 884216801#3 884216801#4 884216800 884218508#0 884218508#1 884218508#2 884218508#3 -204881558#12 -204881558#11 -204881558#10 -204881558#9 -204881558#8 -204881558#7 -204881558#6 -204881558#5 -204881558#4"/>
    </vehicle>
    <vehicle id="145" depart="153.81">
        <route edges="-1072277084#1 -1072277084#0 -491358693#0 191870916#0 191870916#1 191870916#2 191870916#3 -191871545 191870912#4 191870912#5 191870725#5 191870725#6 191870725#7 191870725#8 1028641828 -36471786#4 -36471786#3 36471786#3 36471786#4 1028641827 57133747#0 57133747#1 57133747#2 57133747#3 57133747#4 57133747#5 57133747#6"/>
    </vehicle>
    <vehicle id="148" depart="156.99">
        <route edges="181728253#2 181728253#3 181728253#4 689545646#1 140039128#0 422613722 431223669 -1004930992 -142252343#1 140039130#0 140039130#1 140039130#2 210304201#2 491363276 140039129#1 140039129#2 140039129#3 210304109#3 36471786#0 36471786#1 36471786#2 36471786#3 36471786#4 1028641827 459910929#0 459910929#1 -191870912#6 191870725#5 191870725#6 191870725#7 191870725#8 1231902851#0 1231902851#1 142254254#0 -1230821445#2"/>
    </vehicle>
    <vehicle id="149" depart="158.05">
        <route edges="-204881558#1 204881558#1 204881558#2 204881558#3 204881558#4 204881558#5 204881558#6 204881558#7 204881558#8 204881558#9 204881558#10 204881558#11 204881558#12 884218508#4 884218508#5 884218507 469770778#0 469770778#1 469770778#2 469770778#3 205617219#0 205617219#1 205617224#2 552377544#3 552377544#4 552377544#5 552377544#6 552377544#7 552377544#8 552377544#9 807486037"/>
    </vehicle>
    <vehicle id="152" depart="161.23">
        <route edges="-444512774 4293070#4 4293070#5 444527279 4316293#8 892676285 892676282#0 892676282#1 884218508#2 884218508#3 884218508#4 884218508#5 884218507 469770778#0 469770778#1 469770778#2 469770778#3 205617219#0 205617219#1 -205617224#1 -205617224#0 -374343869#4"/>
    </vehicle>
    <vehicle id="153" depart="162.29">
        <route edges="-833161572#5 -833161572#4 -833161572#3 -833161572#2 -833161572#1 833161572#1 833161572#2"/>
    </vehicle>
    <vehicle id="154" depart="163.35">
        <route edges="552377544#10 552377544#11 552377544#12 469770778#3 469770778#4 469770778#5 772827389#0 772827389#1 4316765#0 4316765#1 4316765#2 4316765#3 465869543#0 465869543#1 465869543#2 769675541"/>
    </vehicle>
    <vehicle id="155" depart="164.41">
        <route edges="807534248#1 583986602#0 -583986602#0 -807534248#1 -807534248#0 -72859071#0 72859070#3 181728253#3 181728253#4 689545646#1 140039128#0 422613722 431223669 -1004930992 -142252343#1 140039130#0 140039130#1 140039130#2 210304201#2 491363276 140039129#1 140039129#2 140039129#3 210304109#3 36471786#0 36471786#1 36471786#2 36471786#3 36471786#4 1028641827 57133747#0 57133747#1 57133747#2 57133747#3 -491375094"/>
    </vehicle>
    <vehicle id="156" depart="165.47">
        <route edges="-72859060 -72859070#1 -72859070#0 1193972632#0 1193972632#1 1193972632#2 946205671#1 946205671#2 946205671#3 591383994#0 591383994#1 591383994#2 591383994#3 591383994#4 591383994#5 591383994#6 591383994#7 591383994#8 591383994#9 884216801#3 884216801#4 884216800 884218508#0 884218508#1 884218508#2 884218508#3 884218508#4 884218508#5 884218507 469770778#0 469770778#1 469770778#2 469770778#3 205617219#0 205617219#1 -205617224#1"/>
    </vehicle>
    <vehicle id="161" depart="170.78">
        <route edges="552377544#9 552377544#10 552377544#11 552377544#12 469770778#3 205617219#0 205617219#1 205617224#2 552377544#3 552377544#4 552377544#5 552377544#6 552377544#7 552377544#8 807486036"/>
    </vehicle>
    <vehicle id="163" depart="172.90">
        <route edges="1028641827 57133747#0 57133747#1 57133747#2 57133747#3 57133747#4 57133747#5 57133747#6 57133747#7 884218503#1 884218503#2 181734847#0 181734847#1 181734847#2 882674432 882674433#0 882674433#1 882674433#2"/>
    </vehicle>
    <vehicle id="167" depart="177.14">
        <route edges="72859070#1 -72859070#1 -72859070#0 1193972632#0 1193972632#1 1193972632#2 946205671#1 946205671#2 946205671#3 591383994#0 591383994#1 591383994#2 591383994#3 591383994#4 591383994#5 591383994#6 591383994#7 591383994#8 591383994#9 884216801#3 884216801#4 884216800 884218508#0 884218508#1 884218508#2 884218508#3 884218508#4 884218508#5 884218507 469770778#0 469770778#1 469770778#2 469770778#3 469770778#4 469770778#5 772827389#0 772827389#1 4316765#0 4316765#1 4316765#2 4316765#3 465869543#0 465869543#1 465869543#2 769675541 769675540"/>
    </vehicle>
    <vehicle id="169" depart="179.26">
        <route edges="191870912#1 191870912#2 191870912#3 191870912#4 191870912#5 191870725#5 191870725#6 191870725#7 191870725#8 1231902851#0 1231902851#1 142254254#0 -1230821445#2 -1230821445#1 1230821445#1"/>
    </vehicle>
    <vehicle id="180" depart="190.93">
        <route edges="478136563#0 478136563#1 -478136563#1 -478136563#0 478136565#2 181728253#2 181728253#3 181728253#4 689545646#1 140039128#0 422613722 431223669 -1004930992 -142252343#1 140039130#0 140039130#1 140039130#2 210304201#2 491363276 140039129#1 140039129#2 140039129#3 210304109#3 36471786#0 36471786#1 36471786#2 36471786#3 36471786#4 1028641827 459910929#0 459910929#1 -191870912#6 191870725#5 191870725#6 191870725#7 191870725#8 1231902851#0 1231902851#1"/>
    </vehicle>
    <vehicle id="187" depart="198.36">
        <route edges="1323585767 459910929#1 -191870912#6 191870725#5 191870725#6 191870725#7 191870725#8 1028641828 -36471786#4 -36471786#3 -36471786#2 -36471786#1 -36471786#0 210304109#4 210304109#5 210304109#0 210304109#1 210304201#0 210304201#1 210304201#2 210304201#3 181734847#2 882674432 882674433#0 882674433#1 142252343#0 140039130#0 140039130#1 -192251093#5"/>
    </vehicle>
    <vehicle id="189" depart="200.48">
        <route edges="-84319963 -74487374 -72843711#2 -72843711#1 -72843711#0 182329167#1 203193279#0 203193279#1 203193279#2 203193279#3 552377544#0 552377544#1 552377544#2 -205617224#2 -205617224#1 -205617224#0 -374343869#4 73008741"/>
    </vehicle>
    <vehicle id="191" depart="202.60">
        <route edges="-833164211 -491358692 450104903#2 491358693#0 1072277084#0 1072277084#1 191871528 191870912#0"/>
    </vehicle>
    <vehicle id="192" depart="203.66">
        <route edges="176164231#6 176164231#7 176164231#8 176164231#9 176164231#10 176164231#11 36471786#2 36471786#3 36471786#4 1028641827 459910929#0 459910929#1 459910929#2 140039131 462531823 769643032#2 459910463#0 459910463#1 459910463#2 175770931#2 1152953479#1"/>
    </vehicle>
    <vehicle id="194" depart="205.78">
        <route edges="884216801#3 884216801#4 884216800 884218508#0 884218508#1 884218508#2 884218508#3 884218508#4 884218508#5 884218507 469770778#0 469770778#1 469770778#2 469770778#3 205617219#0 205617219#1 -205617224#1 -205617224#0 -374343869#4 -374343869#3 -374343869#2 478131326#0 478131326#1 478131326#2"/>
    </vehicle>
    <vehicle id="197" depart="208.96">
        <route edges="-1004930992 -142252343#1 140039130#0 140039130#1 140039130#2 210304201#2 491363276 140039129#1 140039129#2 140039129#3 210304109#3 36471786#0 36471786#1 36471786#2 36471786#3 36471786#4 1028641827"/>
    </vehicle>
    <vehicle id="199" depart="211.09">
        <route edges="444512772#1 444512769 -444512769 -444512772#1 -444512772#0 4293070#11 4293070#12 4293070#13 4293070#14 4293070#15 4293070#16 4293070#17 4293070#18 182329167#0 182329167#1 203193279#0 203193279#1 203193279#2 203193279#3"/>
    </vehicle>
    <vehicle id="201" depart="213.21">
        <route edges="191870915#0 191870915#1 191870725#6 191870725#7 191870725#8 1028641828 -36471786#4 -36471786#3 -36471786#2 -36471786#1 -36471786#0 210304109#4 210304109#5 210304109#0 210304109#1 210304201#0 491385097#0 833161572#1 833161572#2 833161572#3"/>
    </vehicle>
    <vehicle id="211" depart="223.82">
        <route edges="-491361605#1 491361605#1 192131977#2 210304200#0 210304200#1 210304200#2 210304109#1 210304109#2 210304109#3 36471786#0 36471786#1 36471786#2 36471786#3 36471786#4 1028641827 459910929#0 459910929#1 -191870912#6 -191870912#5 -191870912#4 -191870912#3 -191870912#2 -191870912#1 -191870912#0 -191871528 -1072277084#1 -1072277084#0 -491358693#0 491358693#0"/>
    </vehicle>
    <vehicle id="214" depart="227.00">
        <route edges="491359995#0 -491359994 191870725#3 191870725#4 191870725#5 191870725#6 191870725#7 191870725#8 1028641828 -36471786#4 -36471786#3 36471786#3 36471786#4 1028641827 57133747#0 57133747#1 57133747#2 57133747#3 57133747#4 57133747#5"/>
    </vehicle>
    <vehicle id="216" depart="229.12">
        <route edges="-478136565#1 478136565#1 478136565#2 181728253#2 -72859070#3 -72859070#2 -72859070#1 -72859070#0 1193972632#0 1193972632#1 1193972632#2 946205671#1 946205671#2 946205671#3 591383994#0 591383994#1 591383994#2 591383994#3 591383994#4 591383994#5 591383994#6 591383994#7 591383994#8 591383994#9 884216801#3 884216801#4 884216800 884218508#0"/>
    </vehicle>
    <vehicle id="217" depart="230.18">
        <route edges="195008564#2 195008564#3 -191870912#6 -191870912#5 -191870912#4 -191870912#3 -191870912#2 -191870912#1 -191870912#0 -191871528 1072277084#2 -191871541"/>
    </vehicle>
    <vehicle id="218" depart="231.24">
        <route edges="-72859060 -72859070#1 -72859070#0 1193972632#0 1193972632#1 1193972632#2 946205671#1 946205671#2 946205671#3 591383994#0 591383994#1 591383994#2 591383994#3 591383994#4 591383994#5 591383994#6 591383994#7 591383994#8 591383994#9 884216801#3 884216801#4 884216800 884218508#0 884218508#1 884218508#2 884218508#3 884218508#4 884218508#5 884218507 469770778#0 469770778#1 469770778#2 469770778#3 205617219#0 205617219#1 -205617224#1 -205617224#0 -374343869#4 73008741"/>
    </vehicle>
    <vehicle id="224" depart="237.60">
        <route edges="583986602#0 583986602#1 583986602#2 946205671#0 946205671#1 946205671#2 946205671#3 591383994#0 591383994#1 591383994#2 591383994#3 591383994#4 591383994#5 591383994#6 591383994#7 591383994#8 591383994#9 884216801#3 884216801#4 884216800 884218508#0 884218508#1 884218508#2 884218508#3 884218508#4 884218508#5 884218507 469770778#0 469770778#1 469770778#2 469770778#3 205617219#0 205617219#1 -205617224#1 -205617224#0 -374343869#4 374343869#4"/>
    </vehicle>
    <vehicle id="225" depart="238.67">