<?xml version="1.0" encoding="UTF-8"?>

<!-- generated on 2025-06-06 00:42:22 by Eclipse SUMO netconvert Version 1.23.1
<netconvertConfiguration xmlns:xsi="http://www.w3.org/2001/XMLSchema-instance" xsi:noNamespaceSchemaLocation="http://sumo.dlr.de/xsd/netconvertConfiguration.xsd">

    <input>
        <osm-files value="map.osm.xml"/>
    </input>

    <output>
        <output-file value="map.net.xml"/>
    </output>

    <projection>
        <proj.utm value="true"/>
    </projection>

</netconvertConfiguration>
-->

<net version="1.20" junctionCornerDetail="5" limitTurnSpeed="5.50" xmlns:xsi="http://www.w3.org/2001/XMLSchema-instance" xsi:noNamespaceSchemaLocation="http://sumo.dlr.de/xsd/net_file.xsd">

    <location netOffset="-528268.81,-3949229.58" convBoundary="0.00,0.00,12251.92,2571.90" origBoundary="51.312471,35.686445,51.447843,35.709635" projParameter="+proj=utm +zone=39 +ellps=WGS84 +datum=WGS84 +units=m +no_defs"/>

    <type id="highway.busway" priority="1" numLanes="1" speed="27.78" allow="bus" oneway="1"/>
    <type id="highway.footway" priority="1" numLanes="1" speed="2.78" allow="pedestrian" oneway="1" width="2.00"/>
    <type id="highway.living_street" priority="2" numLanes="1" speed="2.78" disallow="tram rail_urban rail rail_electric rail_fast ship container cable_car subway aircraft wheelchair scooter drone" oneway="0"/>
    <type id="highway.primary" priority="12" numLanes="2" speed="27.78" disallow="tram rail_urban rail rail_electric rail_fast ship container cable_car subway aircraft wheelchair scooter drone" oneway="0"/>
    <type id="highway.primary_link" priority="7" numLanes="1" speed="22.22" disallow="tram rail_urban rail rail_electric rail_fast ship container cable_car subway aircraft wheelchair scooter drone" oneway="0"/>
    <type id="highway.residential" priority="3" numLanes="1" speed="13.89" disallow="tram rail_urban rail rail_electric rail_fast ship container cable_car subway aircraft wheelchair scooter drone" oneway="0"/>
    <type id="highway.secondary" priority="11" numLanes="1" speed="27.78" disallow="tram rail_urban rail rail_electric rail_fast ship container cable_car subway aircraft wheelchair scooter drone" oneway="0"/>
    <type id="highway.secondary_link" priority="6" numLanes="1" speed="22.22" disallow="tram rail_urban rail rail_electric rail_fast ship container cable_car subway aircraft wheelchair scooter drone" oneway="0"/>
    <type id="highway.service" priority="1" numLanes="1" speed="5.56" allow="pedestrian delivery bicycle" oneway="0"/>
    <type id="highway.steps" priority="1" numLanes="1" speed="1.39" allow="pedestrian" oneway="1" width="2.00"/>
    <type id="highway.tertiary" priority="10" numLanes="1" speed="22.22" disallow="tram rail_urban rail rail_electric rail_fast ship container cable_car subway aircraft wheelchair scooter drone" oneway="0"/>
    <type id="highway.tertiary_link" priority="5" numLanes="1" speed="22.22" disallow="tram rail_urban rail rail_electric rail_fast ship container cable_car subway aircraft wheelchair scooter drone" oneway="0"/>
    <type id="highway.trunk" priority="13" numLanes="2" speed="27.78" disallow="pedestrian bicycle tram rail_urban rail rail_electric rail_fast ship container cable_car subway aircraft wheelchair scooter drone" oneway="0"/>
    <type id="highway.trunk_link" priority="8" numLanes="1" speed="22.22" disallow="pedestrian bicycle tram rail_urban rail rail_electric rail_fast ship container cable_car subway aircraft wheelchair scooter drone" oneway="0"/>
    <type id="highway.unclassified" priority="4" numLanes="1" speed="13.89" disallow="tram rail_urban rail rail_electric rail_fast ship container cable_car subway aircraft wheelchair scooter drone" oneway="0"/>
    <type id="railway.subway" priority="18" numLanes="1" speed="27.78" allow="subway" oneway="1"/>

    <edge id=":10130132135_0" function="internal">
        <lane id=":10130132135_0_0" index="0" allow="pedestrian delivery bicycle" speed="4.66" length="6.03" shape="4114.39,1888.36 4114.64,1890.19 4115.34,1891.12 4116.51,1891.16 4118.15,1890.30"/>
    </edge>
    <edge id=":10130132135_1" function="internal">
        <lane id=":10130132135_1_0" index="0" allow="pedestrian delivery bicycle" speed="3.65" length="4.67" shape="4114.39,1888.36 4113.60,1889.56 4112.80,1889.97 4112.00,1889.57 4111.19,1888.37"/>
    </edge>
    <edge id=":10130132135_2" function="internal">
        <lane id=":10130132135_2_0" index="0" allow="pedestrian delivery bicycle" speed="8.43" length="8.54" shape="4109.31,1896.48 4110.15,1895.47 4110.74,1893.78 4111.09,1891.42 4111.19,1888.37"/>
    </edge>
    <edge id=":10130132135_3" function="internal">
        <lane id=":10130132135_3_0" index="0" disallow="tram rail_urban rail rail_electric rail_fast ship container cable_car subway aircraft wheelchair scooter drone" speed="13.89" length="10.78" shape="4109.31,1896.48 4118.15,1890.30"/>
    </edge>
    <edge id=":10130132136_0" function="internal">
        <lane id=":10130132136_0_0" index="0" allow="pedestrian delivery bicycle" speed="3.65" length="4.67" shape="4110.40,1724.22 4111.20,1723.02 4111.99,1722.62 4112.80,1723.01 4113.60,1724.21"/>
    </edge>
    <edge id=":10132947814_0" function="internal">
        <lane id=":10132947814_0_0" index="0" allow="pedestrian delivery bicycle" speed="5.56" length="4.70" shape="3525.75,1921.35 3525.63,1926.05"/>
    </edge>
    <edge id=":10132947814_1" function="internal">
        <lane id=":10132947814_1_0" index="0" allow="pedestrian delivery bicycle" speed="3.65" length="1.44" shape="3525.75,1921.35 3524.92,1922.53"/>
    </edge>
    <edge id=":10132947814_4" function="internal">
        <lane id=":10132947814_4_0" index="0" allow="pedestrian delivery bicycle" speed="3.65" length="3.23" shape="3524.92,1922.53 3524.11,1922.91 3523.32,1922.49 3522.55,1921.27"/>
    </edge>
    <edge id=":10132947814_2" function="internal">
        <lane id=":10132947814_2_0" index="0" allow="pedestrian delivery bicycle" speed="5.56" length="4.70" shape="3522.43,1925.97 3522.55,1921.27"/>
    </edge>
    <edge id=":10132947814_3" function="internal">
        <lane id=":10132947814_3_0" index="0" allow="pedestrian delivery bicycle" speed="3.65" length="1.44" shape="3522.43,1925.97 3523.26,1924.79"/>
    </edge>
    <edge id=":10132947814_5" function="internal">
        <lane id=":10132947814_5_0" index="0" allow="pedestrian delivery bicycle" speed="3.65" length="3.23" shape="3523.26,1924.79 3524.07,1924.41 3524.86,1924.83 3525.63,1926.05"/>
    </edge>
    <edge id=":11083307591_0" function="internal">
        <lane id=":11083307591_0_0" index="0" disallow="tram rail_urban rail rail_electric rail_fast ship container cable_car subway aircraft wheelchair scooter drone" speed="8.33" length="9.42" shape="3959.75,1783.77 3950.35,1783.32"/>
    </edge>
    <edge id=":11083307591_1" function="internal">
        <lane id=":11083307591_1_0" index="0" allow="pedestrian delivery bicycle" speed="6.04" length="7.88" shape="3959.75,1783.77 3956.99,1783.44 3955.05,1782.74 3953.95,1781.65 3953.68,1780.20"/>
    </edge>
    <edge id=":11083307591_2" function="internal">
        <lane id=":11083307591_2_0" index="0" allow="pedestrian delivery bicycle" speed="6.18" length="7.83" shape="3956.86,1780.47 3956.35,1781.84 3955.10,1782.77 3953.09,1783.26 3950.35,1783.32"/>
    </edge>
    <edge id=":11083307591_3" function="internal">
        <lane id=":11083307591_3_0" index="0" allow="pedestrian delivery bicycle" speed="3.65" length="4.67" shape="3956.86,1780.47 3955.96,1781.60 3955.13,1781.93 3954.37,1781.46 3953.68,1780.20"/>
    </edge>
    <edge id=":12082896271_0" function="internal">
        <lane id=":12082896271_0_0" index="0" allow="emergency authority bus bicycle" speed="3.65" length="4.67" shape="3878.62,1797.90 3877.28,1797.35 3876.73,1796.65 3876.97,1795.79 3877.99,1794.77"/>
    </edge>
    <edge id=":12137942207_0" function="internal">
        <lane id=":12137942207_0_0" index="0" allow="pedestrian delivery bicycle" speed="4.23" length="3.77" shape="3657.34,1576.81 3657.15,1575.30 3656.86,1574.26 3656.47,1573.71 3655.98,1573.65"/>
    </edge>
    <edge id=":12137942207_1" function="internal">
        <lane id=":12137942207_1_0" index="0" allow="pedestrian delivery bicycle" speed="5.56" length="8.97" shape="3657.34,1576.81 3657.31,1573.82 3657.74,1571.47 3658.62,1569.79 3659.95,1568.76"/>
    </edge>
    <edge id=":12137942207_2" function="internal">
        <lane id=":12137942207_2_0" index="0" allow="pedestrian delivery bicycle" speed="3.65" length="4.67" shape="3657.34,1576.81 3658.04,1575.56 3658.81,1575.10 3659.64,1575.44 3660.53,1576.57"/>
    </edge>
    <edge id=":12137942207_3" function="internal">
        <lane id=":12137942207_3_0" index="0" allow="pedestrian delivery bicycle" speed="5.56" length="5.12" shape="3661.27,1571.67 3660.82,1572.16 3660.55,1573.14 3660.45,1574.61 3660.53,1576.57"/>
    </edge>
    <edge id=":12137942207_4" function="internal">
        <lane id=":12137942207_4_0" index="0" allow="pedestrian delivery bicycle" speed="5.56" length="5.65" shape="3661.27,1571.67 3659.73,1572.35 3658.67,1572.77 3657.58,1573.14 3655.98,1573.65"/>
    </edge>
    <edge id=":12137942207_5" function="internal">
        <lane id=":12137942207_5_0" index="0" allow="pedestrian delivery bicycle" speed="3.65" length="4.67" shape="3661.27,1571.67 3659.84,1571.44 3659.15,1570.87 3659.19,1569.98 3659.95,1568.76"/>
    </edge>
    <edge id=":12137942207_6" function="internal">
        <lane id=":12137942207_6_0" index="0" allow="pedestrian delivery bicycle" speed="5.56" length="5.28" shape="3655.01,1570.60 3656.50,1570.12 3657.52,1569.78 3658.52,1569.39 3659.95,1568.76"/>
    </edge>
    <edge id=":12137942207_7" function="internal">
        <lane id=":12137942207_7_0" index="0" allow="pedestrian delivery bicycle" speed="5.56" length="9.70" shape="3655.01,1570.60 3657.21,1570.38 3658.86,1571.30 3659.97,1573.37 3660.53,1576.57"/>
    </edge>
    <edge id=":12137942207_8" function="internal">
        <lane id=":12137942207_8_0" index="0" allow="pedestrian delivery bicycle" speed="3.65" length="4.67" shape="3655.01,1570.60 3656.39,1571.00 3657.02,1571.64 3656.88,1572.52 3655.98,1573.65"/>
    </edge>
    <edge id=":12137942209_0" function="internal">
        <lane id=":12137942209_0_0" index="0" allow="pedestrian delivery bicycle" speed="5.56" length="6.10" shape="3647.09,1605.26 3645.33,1605.64 3644.14,1606.00 3642.99,1606.45 3641.32,1607.16"/>
    </edge>
    <edge id=":12137942209_1" function="internal">
        <lane id=":12137942209_1_0" index="0" allow="pedestrian delivery bicycle" speed="5.56" length="8.89" shape="3647.09,1605.26 3645.18,1605.21 3643.73,1604.20 3642.74,1602.22 3642.21,1599.27"/>
    </edge>
    <edge id=":12137942209_2" function="internal">
        <lane id=":12137942209_2_0" index="0" allow="pedestrian delivery bicycle" speed="3.65" length="4.67" shape="3647.09,1605.26 3645.76,1604.71 3645.21,1604.01 3645.44,1603.14 3646.46,1602.12"/>
    </edge>
    <edge id=":12137942209_3" function="internal">
        <lane id=":12137942209_3_0" index="0" allow="pedestrian delivery bicycle" speed="4.25" length="3.55" shape="3645.40,1598.99 3645.46,1599.93 3645.59,1601.01 3645.89,1601.86 3646.46,1602.12"/>
    </edge>
    <edge id=":12137942209_4" function="internal">
        <lane id=":12137942209_4_0" index="0" allow="pedestrian delivery bicycle" speed="5.56" length="9.82" shape="3645.40,1598.99 3645.35,1601.84 3644.65,1604.15 3643.31,1605.92 3641.32,1607.16"/>
    </edge>
    <edge id=":12137942209_5" function="internal">
        <lane id=":12137942209_5_0" index="0" allow="pedestrian delivery bicycle" speed="3.65" length="4.67" shape="3645.40,1598.99 3644.71,1600.26 3643.95,1600.73 3643.11,1600.40 3642.21,1599.27"/>
    </edge>
    <edge id=":12137942209_6" function="internal">
        <lane id=":12137942209_6_0" index="0" allow="pedestrian delivery bicycle" speed="5.56" length="5.76" shape="3640.09,1604.20 3641.14,1603.51 3641.85,1602.46 3642.21,1601.04 3642.21,1599.27"/>
    </edge>
    <edge id=":12137942209_7" function="internal">
        <lane id=":12137942209_7_0" index="0" allow="pedestrian delivery bicycle" speed="5.56" length="6.72" shape="3640.09,1604.20 3641.93,1603.43 3643.20,1602.93 3644.51,1602.55 3646.46,1602.12"/>
    </edge>
    <edge id=":12137942209_8" function="internal">
        <lane id=":12137942209_8_0" index="0" allow="pedestrian delivery bicycle" speed="3.65" length="4.67" shape="3640.09,1604.20 3641.50,1604.48 3642.18,1605.06 3642.12,1605.96 3641.32,1607.16"/>
    </edge>
    <edge id=":12137942219_0" function="internal">
        <lane id=":12137942219_0_0" index="0" allow="pedestrian delivery bicycle" speed="5.56" length="2.67" shape="3655.79,1573.71 3653.24,1574.52"/>
    </edge>
    <edge id=":12137942219_1" function="internal">
        <lane id=":12137942219_1_0" index="0" allow="pedestrian delivery bicycle" speed="3.65" length="1.44" shape="3655.79,1573.71 3654.40,1573.31"/>
    </edge>
    <edge id=":12137942219_4" function="internal">
        <lane id=":12137942219_4_0" index="0" allow="pedestrian delivery bicycle" speed="3.65" length="3.23" shape="3654.40,1573.31 3653.78,1572.67 3653.92,1571.79 3654.82,1570.66"/>
    </edge>
    <edge id=":12137942219_2" function="internal">
        <lane id=":12137942219_2_0" index="0" allow="pedestrian delivery bicycle" speed="5.56" length="2.67" shape="3652.27,1571.47 3654.82,1570.66"/>
    </edge>
    <edge id=":12137942219_3" function="internal">
        <lane id=":12137942219_3_0" index="0" allow="pedestrian delivery bicycle" speed="3.65" length="1.44" shape="3652.27,1571.47 3653.65,1571.87"/>
    </edge>
    <edge id=":12137942219_5" function="internal">
        <lane id=":12137942219_5_0" index="0" allow="pedestrian delivery bicycle" speed="3.65" length="3.23" shape="3653.65,1571.87 3654.28,1572.51 3654.14,1573.39 3653.24,1574.52"/>
    </edge>
    <edge id=":12169905989_0" function="internal">
        <lane id=":12169905989_0_0" index="0" allow="pedestrian delivery bicycle" speed="5.56" length="5.02" shape="3649.31,1634.38 3648.74,1629.40"/>
    </edge>
    <edge id=":12169905989_1" function="internal">
        <lane id=":12169905989_1_0" index="0" allow="pedestrian delivery bicycle" speed="3.65" length="1.44" shape="3649.31,1634.38 3649.93,1633.08"/>
    </edge>
    <edge id=":12169905989_4" function="internal">
        <lane id=":12169905989_4_0" index="0" allow="pedestrian delivery bicycle" speed="3.65" length="3.23" shape="3649.93,1633.08 3650.67,1632.57 3651.52,1632.86 3652.48,1633.93"/>
    </edge>
    <edge id=":12169905989_2" function="internal">
        <lane id=":12169905989_2_0" index="0" allow="pedestrian delivery bicycle" speed="5.56" length="4.96" shape="3651.92,1629.01 3652.48,1633.93"/>
    </edge>
    <edge id=":12169905989_3" function="internal">
        <lane id=":12169905989_3_0" index="0" allow="pedestrian delivery bicycle" speed="3.65" length="1.45" shape="3651.92,1629.01 3651.27,1630.30"/>
    </edge>
    <edge id=":12169905989_5" function="internal">
        <lane id=":12169905989_5_0" index="0" allow="pedestrian delivery bicycle" speed="3.65" length="3.24" shape="3651.27,1630.30 3650.52,1630.80 3649.68,1630.49 3648.74,1629.40"/>
    </edge>
    <edge id=":12169905990_0" function="internal">
        <lane id=":12169905990_0_0" index="0" allow="pedestrian delivery bicycle" speed="5.56" length="5.00" shape="3647.42,1614.19 3646.94,1609.21"/>
    </edge>
    <edge id=":12169905990_1" function="internal">
        <lane id=":12169905990_1_0" index="0" allow="pedestrian delivery bicycle" speed="3.65" length="4.67" shape="3647.42,1614.19 3648.10,1612.91 3648.86,1612.44 3649.70,1612.76 3650.61,1613.88"/>
    </edge>
    <edge id=":12169905990_2" function="internal">
        <lane id=":12169905990_2_0" index="0" allow="pedestrian delivery bicycle" speed="5.56" length="5.00" shape="3650.13,1608.90 3650.61,1613.88"/>
    </edge>
    <edge id=":12169905990_3" function="internal">
        <lane id=":12169905990_3_0" index="0" allow="pedestrian delivery bicycle" speed="3.65" length="4.67" shape="3650.13,1608.90 3649.45,1610.18 3648.69,1610.65 3647.85,1610.33 3646.94,1609.21"/>
    </edge>
    <edge id=":12176317706_0" function="internal">
        <lane id=":12176317706_0_0" index="0" allow="pedestrian delivery bicycle" speed="5.56" length="2.27" shape="3664.33,1790.79 3662.06,1790.84"/>
    </edge>
    <edge id=":12176317706_1" function="internal">
        <lane id=":12176317706_1_0" index="0" allow="pedestrian delivery bicycle" speed="3.65" length="4.67" shape="3664.33,1790.79 3663.07,1790.08 3662.62,1789.31 3662.96,1788.48 3664.10,1787.60"/>
    </edge>
    <edge id=":12176317706_2" function="internal">
        <lane id=":12176317706_2_0" index="0" allow="pedestrian delivery bicycle" speed="5.56" length="2.12" shape="3661.98,1787.65 3664.10,1787.60"/>
    </edge>
    <edge id=":12176317706_3" function="internal">
        <lane id=":12176317706_3_0" index="0" allow="pedestrian delivery bicycle" speed="3.65" length="4.67" shape="3661.98,1787.65 3663.20,1788.41 3663.62,1789.20 3663.24,1790.01 3662.06,1790.84"/>
    </edge>
    <edge id=":12247992096_0" function="internal">
        <lane id=":12247992096_0_0" index="0" disallow="tram rail_urban rail rail_electric rail_fast ship container cable_car subway aircraft wheelchair scooter drone" speed="13.89" length="7.49" shape="3608.42,1208.65 3606.38,1209.54 3604.98,1210.15 3603.63,1210.85 3601.75,1212.04"/>
    </edge>
    <edge id=":12247992096_1" function="internal">
        <lane id=":12247992096_1_0" index="0" disallow="tram rail_urban rail rail_electric rail_fast ship container cable_car subway aircraft wheelchair scooter drone" speed="7.60" length="7.46" shape="3605.15,1205.78 3605.00,1207.63 3604.38,1209.29 3603.30,1210.76 3601.75,1212.04"/>
    </edge>
    <edge id=":12247992100_0" function="internal">
        <lane id=":12247992100_0_0" index="0" disallow="tram rail_urban rail rail_electric rail_fast ship container cable_car subway aircraft wheelchair scooter drone" speed="13.89" length="5.11" shape="3676.10,1169.93 3671.51,1172.19"/>
    </edge>
    <edge id=":12247992100_1" function="internal">
        <lane id=":12247992100_1_0" index="0" disallow="tram rail_urban rail rail_electric rail_fast ship container cable_car subway aircraft wheelchair scooter drone" speed="13.89" length="5.11" shape="3670.10,1169.31 3674.69,1167.06"/>
    </edge>
    <edge id=":12860703075_0" function="internal">
        <lane id=":12860703075_0_0" index="0" disallow="tram rail_urban rail rail_electric rail_fast ship container cable_car subway aircraft wheelchair scooter drone" speed="13.89" length="9.24" shape="3874.49,1970.25 3873.55,1961.05"/>
    </edge>
    <edge id=":12860703075_1" function="internal">
        <lane id=":12860703075_1_0" index="0" disallow="tram rail_urban rail rail_electric rail_fast ship container cable_car subway aircraft wheelchair scooter drone" speed="6.14" length="7.79" shape="3874.49,1970.25 3874.40,1967.49 3874.79,1965.47 3875.64,1964.19 3876.96,1963.63"/>
    </edge>
    <edge id=":12860703075_2" function="internal">
        <lane id=":12860703075_2_0" index="0" disallow="tram rail_urban rail rail_electric rail_fast ship container cable_car subway aircraft wheelchair scooter drone" speed="6.01" length="7.68" shape="3877.35,1966.80 3875.92,1966.59 3874.81,1965.56 3874.02,1963.71 3873.55,1961.05"/>
    </edge>
    <edge id=":12860703075_3" function="internal">
        <lane id=":12860703075_3_0" index="0" disallow="tram rail_urban rail rail_electric rail_fast ship container cable_car subway aircraft wheelchair scooter drone" speed="3.65" length="4.67" shape="3877.35,1966.80 3876.06,1966.16 3875.57,1965.41 3875.87,1964.57 3876.96,1963.63"/>
    </edge>
    <edge id=":12860703076_0" function="internal">
        <lane id=":12860703076_0_0" index="0" disallow="tram rail_urban rail rail_electric rail_fast ship container cable_car subway aircraft wheelchair scooter drone" speed="13.89" length="9.40" shape="3885.53,1959.47 3886.57,1968.81"/>
    </edge>
    <edge id=":12860703076_1" function="internal">
        <lane id=":12860703076_1_0" index="0" disallow="tram rail_urban rail rail_electric rail_fast ship container cable_car subway aircraft wheelchair scooter drone" speed="6.11" length="7.78" shape="3885.53,1959.47 3885.64,1962.22 3885.28,1964.24 3884.44,1965.53 3883.13,1966.09"/>
    </edge>
    <edge id=":12860703076_2" function="internal">
        <lane id=":12860703076_2_0" index="0" disallow="tram rail_urban rail rail_electric rail_fast ship container cable_car subway aircraft wheelchair scooter drone" speed="6.07" length="7.79" shape="3882.74,1962.91 3884.15,1963.14 3885.26,1964.19 3886.07,1966.08 3886.57,1968.81"/>
    </edge>
    <edge id=":12860703076_3" function="internal">
        <lane id=":12860703076_3_0" index="0" disallow="tram rail_urban rail rail_electric rail_fast ship container cable_car subway aircraft wheelchair scooter drone" speed="3.65" length="4.67" shape="3882.74,1962.91 3884.03,1963.56 3884.52,1964.31 3884.22,1965.15 3883.13,1966.09"/>
    </edge>
    <edge id=":1534383975_0" function="internal">
        <lane id=":1534383975_0_0" index="0" disallow="tram rail_urban rail rail_electric rail_fast ship container cable_car subway aircraft wheelchair scooter drone" speed="11.11" length="12.16" shape="3853.26,1070.25 3856.24,1068.85 3858.55,1067.33 3860.62,1065.48 3862.89,1063.05"/>
    </edge>
    <edge id=":1534383975_1" function="internal">
        <lane id=":1534383975_1_0" index="0" disallow="tram rail_urban rail rail_electric rail_fast ship container cable_car subway aircraft wheelchair scooter drone" speed="6.96" length="9.13" shape="3861.97,1076.82 3860.25,1074.60 3858.43,1073.26 3856.51,1072.80 3854.47,1073.21"/>
    </edge>
    <edge id=":1534383975_2" function="internal">
        <lane id=":1534383975_2_0" index="0" disallow="tram rail_urban rail rail_electric rail_fast ship container cable_car subway aircraft wheelchair scooter drone" speed="8.33" length="14.95" shape="3861.97,1076.82 3860.26,1073.13 3859.85,1069.61 3860.72,1066.25 3862.89,1063.05"/>
    </edge>
    <edge id=":1534383980_0" function="internal">
        <lane id=":1534383980_0_0" index="0" disallow="pedestrian bicycle tram rail_urban rail rail_electric rail_fast ship container cable_car subway aircraft wheelchair scooter drone" speed="22.22" length="7.27" shape="4124.84,1170.84 4123.21,1169.45 4121.86,1168.73 4120.58,1167.97 4119.16,1166.41"/>
    </edge>
    <edge id=":1534383988_0" function="internal">
        <lane id=":1534383988_0_0" index="0" disallow="tram rail_urban rail rail_electric rail_fast ship container cable_car subway aircraft wheelchair scooter drone" speed="13.89" length="7.59" shape="3337.38,1358.29 3335.54,1356.99 3334.24,1356.17 3332.89,1355.41 3330.92,1354.31"/>
    </edge>
    <edge id=":1534383988_1" function="internal">
        <lane id=":1534383988_1_0" index="0" disallow="tram rail_urban rail rail_electric rail_fast ship container cable_car subway aircraft wheelchair scooter drone" speed="10.69" length="7.54" shape="3337.38,1358.29 3335.78,1356.85 3335.04,1355.53 3334.66,1353.95 3334.11,1351.77"/>
    </edge>
    <edge id=":1534383989_0" function="internal">
        <lane id=":1534383989_0_0" index="0" disallow="tram rail_urban rail rail_electric rail_fast ship container cable_car subway aircraft wheelchair scooter drone" speed="9.45" length="5.78" shape="3368.98,1384.37 3368.52,1382.72 3368.13,1381.56 3367.48,1380.59 3366.21,1379.50"/>
    </edge>
    <edge id=":1534383989_1" function="internal">
        <lane id=":1534383989_1_0" index="0" disallow="tram rail_urban rail rail_electric rail_fast ship container cable_car subway aircraft wheelchair scooter drone" speed="10.49" length="5.80" shape="3371.68,1380.98 3369.95,1380.90 3368.74,1380.79 3367.63,1380.41 3366.21,1379.50"/>
    </edge>
    <edge id=":1534383990_0" function="internal">
        <lane id=":1534383990_0_0" index="0" disallow="tram rail_urban rail rail_electric rail_fast ship container cable_car subway aircraft wheelchair scooter drone" speed="11.11" length="10.12" shape="4019.17,1389.36 4017.99,1399.40"/>
    </edge>
    <edge id=":1534383990_1" function="internal">
        <lane id=":1534383990_1_0" index="0" disallow="tram rail_urban rail rail_electric rail_fast ship container cable_car subway aircraft wheelchair scooter drone" speed="6.82" length="11.16" shape="4019.17,1389.36 4018.36,1391.73 4016.60,1393.10 4013.90,1393.48 4010.26,1392.86"/>
    </edge>
    <edge id=":1534383990_2" function="internal">
        <lane id=":1534383990_2_0" index="0" disallow="tram rail_urban rail rail_electric rail_fast ship container cable_car subway aircraft wheelchair scooter drone" speed="3.65" length="4.67" shape="4019.17,1389.36 4018.23,1390.46 4017.39,1390.76 4016.64,1390.27 4015.99,1388.98"/>
    </edge>
    <edge id=":1534383990_3" function="internal">
        <lane id=":1534383990_3_0" index="0" disallow="tram rail_urban rail rail_electric rail_fast ship container cable_car subway aircraft wheelchair scooter drone" speed="6.68" length="8.49" shape="4014.81,1399.03 4014.74,1396.85 4013.95,1395.10 4012.46,1393.76 4010.26,1392.86"/>
    </edge>
    <edge id=":1534383990_4" function="internal">
        <lane id=":1534383990_4_0" index="0" disallow="tram rail_urban rail rail_electric rail_fast ship container cable_car subway aircraft wheelchair scooter drone" speed="11.11" length="10.12" shape="4014.81,1399.03 4015.99,1388.98"/>
    </edge>
    <edge id=":1534383990_5" function="internal">
        <lane id=":1534383990_5_0" index="0" disallow="tram rail_urban rail rail_electric rail_fast ship container cable_car subway aircraft wheelchair scooter drone" speed="3.65" length="4.67" shape="4014.81,1399.03 4015.75,1397.93 4016.59,1397.63 4017.34,1398.12 4017.99,1399.40"/>
    </edge>
    <edge id=":1557060685_0" function="internal">
        <lane id=":1557060685_0_0" index="0" disallow="tram rail_urban rail rail_electric rail_fast ship container cable_car subway aircraft wheelchair scooter drone" speed="6.35" length="9.04" shape="3963.89,1075.33 3963.43,1072.87 3962.30,1071.20 3960.48,1070.33 3957.98,1070.26"/>
    </edge>
    <edge id=":1557060685_1" function="internal">
        <lane id=":1557060685_1_0" index="0" disallow="tram rail_urban rail rail_electric rail_fast ship container cable_car subway aircraft wheelchair scooter drone" speed="8.33" length="14.66" shape="3963.89,1075.33 3963.02,1060.70"/>
    </edge>
    <edge id=":1557060685_2" function="internal">
        <lane id=":1557060685_2_0" index="0" disallow="tram rail_urban rail rail_electric rail_fast ship container cable_car subway aircraft wheelchair scooter drone" speed="8.29" length="14.54" shape="3963.89,1075.33 3964.28,1071.36 3965.81,1068.40 3968.47,1066.44 3972.27,1065.48"/>
    </edge>
    <edge id=":1557060685_3" function="internal">
        <lane id=":1557060685_3_0" index="0" disallow="tram rail_urban rail rail_electric rail_fast ship container cable_car subway aircraft wheelchair scooter drone" speed="3.65" length="4.67" shape="3963.89,1075.33 3964.64,1074.10 3965.42,1073.67 3966.24,1074.04 3967.08,1075.21"/>
    </edge>
    <edge id=":1557060685_4" function="internal">
        <lane id=":1557060685_4_0" index="0" disallow="tram rail_urban rail rail_electric rail_fast ship container cable_car subway aircraft wheelchair scooter drone" speed="6.85" length="9.62" shape="3972.60,1068.67 3970.10,1069.30 3968.35,1070.60 3967.34,1072.57 3967.08,1075.21"/>
    </edge>
    <edge id=":1557060685_5" function="internal">
        <lane id=":1557060685_5_0" index="0" disallow="tram rail_urban rail rail_electric rail_fast ship container cable_car subway aircraft wheelchair scooter drone" speed="11.11" length="14.71" shape="3972.60,1068.67 3957.98,1070.26"/>
    </edge>
    <edge id=":1557060685_6" function="internal">
        <lane id=":1557060685_6_0" index="0" disallow="tram rail_urban rail rail_electric rail_fast ship container cable_car subway aircraft wheelchair scooter drone" speed="7.96" length="4.05" shape="3972.60,1068.67 3968.67,1068.52 3968.56,1068.46"/>
    </edge>
    <edge id=":1557060685_7" function="internal">
        <lane id=":1557060685_7_0" index="0" disallow="tram rail_urban rail rail_electric rail_fast ship container cable_car subway aircraft wheelchair scooter drone" speed="3.65" length="1.44" shape="3972.60,1068.67 3971.32,1068.00"/>
    </edge>
    <edge id=":1557060685_16" function="internal">
        <lane id=":1557060685_16_0" index="0" disallow="tram rail_urban rail rail_electric rail_fast ship container cable_car subway aircraft wheelchair scooter drone" speed="7.96" length="10.23" shape="3968.56,1068.46 3965.77,1067.14 3963.89,1064.53 3963.02,1060.70"/>
    </edge>
    <edge id=":1557060685_17" function="internal">
        <lane id=":1557060685_17_0" index="0" disallow="tram rail_urban rail rail_electric rail_fast ship container cable_car subway aircraft wheelchair scooter drone" speed="3.65" length="3.23" shape="3971.32,1068.00 3970.84,1067.24 3971.16,1066.40 3972.27,1065.48"/>
    </edge>
    <edge id=":1557060685_8" function="internal">
        <lane id=":1557060685_8_0" index="0" disallow="tram rail_urban rail rail_electric rail_fast ship container cable_car subway aircraft wheelchair scooter drone" speed="6.45" length="9.03" shape="3966.21,1060.45 3966.76,1062.87 3967.95,1064.52 3969.79,1065.39 3972.27,1065.48"/>
    </edge>
    <edge id=":1557060685_9" function="internal">
        <lane id=":1557060685_9_0" index="0" disallow="tram rail_urban rail rail_electric rail_fast ship container cable_car subway aircraft wheelchair scooter drone" speed="8.33" length="14.78" shape="3966.21,1060.45 3967.08,1075.21"/>
    </edge>
    <edge id=":1557060685_10" function="internal">