<?xml version="1.0" encoding="UTF-8"?>

<!-- generated on 2025-06-06 00:40:16.450715 by randomTrips.py UNKNOWN
<configuration>
    <net-file value="map.net.xml"/>
    <route-file value="map.rou.xml"/>
    <end value="600.0"/>
    <insertion-density value="40.0"/>
</configuration>
-->

<!-- generated on 2025-06-06 00:40:16 by Eclipse SUMO duarouter Version 1.23.1
<duarouterConfiguration xmlns:xsi="http://www.w3.org/2001/XMLSchema-instance" xsi:noNamespaceSchemaLocation="http://sumo.dlr.de/xsd/duarouterConfiguration.xsd">

    <input>
        <net-file value="map.net.xml"/>
        <route-files value="trips.trips.xml"/>
    </input>

    <output>
        <output-file value="map.rou.xml"/>
        <alternatives-output value="NUL"/>
    </output>

    <time>
        <begin value="0.0"/>
        <end value="600.0"/>
    </time>

    <report>
        <no-warnings value="true"/>
        <ignore-errors value="true"/>
        <no-step-log value="true"/>
    </report>

</duarouterConfiguration>
-->

<routes xmlns:xsi="http://www.w3.org/2001/XMLSchema-instance" xsi:noNamespaceSchemaLocation="http://sumo.dlr.de/xsd/routes_file.xsd">
    <vehicle id="2" depart="4.68">
        <route edges="485345409#1 485345402#3 485345402#4 485345402#5 485345402#6 485345402#7 485345402#8 485345402#9 966241685#0 966241685#1 966241685#2 966241685#3 966241685#4 966241685#5 1241934878 1279821707#0 1279821707#1 1279821706#0 1279821706#1 1249008025#0 1249008025#1 174845592#0 174845592#1 174845592#2 1231052756#2 1231052756#3 4392663#0 4392663#1 4392663#2 1249110835#0 1249110835#1 1249110835#2 1249110835#3 1249110835#4 1249110835#5 468748353#0 468748353#1 468748353#2 35103843#0 448629222 467626268#1"/>
    </vehicle>
    <vehicle id="3" depart="7.02">
        <route edges="73033641#1 73033641#2 73033641#3 73033641#4 738782259#3 738782259#4 738782259#5 738782259#6 738782259#7 738782259#8 30694471#0 966241685#0 966241685#1 966241685#2 966241685#3 966241685#4 966241685#5 1241934878 1279821707#0 1279821707#1 1279821706#0 1279821706#1 1249008025#0 1249008025#1 1249008025#2 1249008025#3 4295231#5 4295231#6 4295231#7 380240519#0 380240519#1 380240519#2 380240519#3 380240519#4 380240519#5 892680235#0 892680235#1 -36326649#16 -36326649#15 -36326649#14 -36326649#13 -36326649#12 -36326649#11 -36326649#10 -36326649#9 -36326649#8"/>
    </vehicle>
    <vehicle id="4" depart="9.37">
        <route edges="193899237#8 193899237#9 193899237#10 433013219#2 433013219#3 1231322123 4295231#7 4295231#8 4295231#0 4295231#1 1279673595#0 1279673595#1 -187937535#2 -187937535#1 -191537655#2 -191537655#1 -191537655#0"/>
    </vehicle>
    <vehicle id="5" depart="11.71">
        <route edges="-506875003#8 -506875003#7 -506875003#6 -506875003#5 -506875003#4 72879917#0 72879917#1 72879917#2 72879917#3 382134122#4 382134122#5"/>
    </vehicle>
    <vehicle id="6" depart="14.05">
        <route edges="-191537655#0 892680233#5 892680233#6 4295231#1 1279673595#0 1279673595#1 1279673595#2 1279673595#3 1279673595#4 1279673595#5 1279673595#6 1279673595#7 382134122#0 382134122#1 72879968#0 72879968#1 72879968#2 -506875003#8 -506875003#7 -506875003#6 -506875003#5 -506875003#4"/>
    </vehicle>
    <vehicle id="7" depart="16.39">
        <route edges="448629483#0 448629483#1 448629483#2 35103848#1 1249110835#2 1249110835#3 1249110835#4 1249110835#5 1249110834#0 1249110834#1 1249110834#2 1249110834#3 1249110834#4 1249110834#5 1249110834#6 1249110834#7 382134122#0 35103845#0 35103845#1 4295245#4 4295245#5 4295245#6 4295245#7 4295245#8 4295245#9 433013437 892680238 892680236 489741078#0 489741078#1 489741078#2 489741078#3 489741078#4 489741078#5 433013218#4 433013218#5 433013218#6 433013218#7 433013218#8"/>
    </vehicle>
    <vehicle id="8" depart="18.73">
        <route edges="-506875003#9 506875003#9 506875003#10 1249110834#3 1249110834#4 1249110834#5 1249110834#6 1249110834#7 382134122#0 35103845#0 35103845#1 4295245#4 4295245#5 4295245#6 4295245#7 1274561941#0 1274561941#1 892680233#2 892680233#3 892680233#4 892680233#5 892680233#6 4295231#1 4295231#2 4295231#3 1231052756#0 1231052756#1 1231052756#2 1231052756#3 4392663#0 4392663#1 4392663#2 4392663#3 4392663#4 4392663#5 4392663#6"/>
    </vehicle>
    <vehicle id="9" depart="21.07">
        <route edges="506875003#1 506875003#2 506875003#3 506875003#4 506875003#5 506875003#6 506875003#7 506875003#8 506875003#9 506875003#10 1249110834#3 1249110834#4 1249110834#5 1249110834#6 1249110834#7 382134122#0 35103845#0 35103845#1 4295245#4 4295245#5 4295245#6 4295245#7 4295245#8 4295245#9 433013437 892680238 892680236 892680235#0 892680235#1 1274561940#0 1274561940#1 1274561940#2 -1274561940#2 -1274561940#1 -1274561940#0"/>
    </vehicle>
    <vehicle id="10" depart="23.41">
        <route edges="5047747#2 468748353#0 468748353#1 468748353#2"/>
    </vehicle>
    <vehicle id="11" depart="25.75">
        <route edges="1279826715 876037154#0 876037154#1 876037154#2 1279821707#0 1279821707#1 51260925#0 51260925#1 51260925#2 51260925#3 51260925#4 51260924#0 51260924#1 30694471#0 966241685#0 966241685#1 966241685#2 966241685#3 966241685#4 -485345403"/>
    </vehicle>
    <vehicle id="12" depart="28.10">
        <route edges="892680233#0 892680233#1 892680233#2 892680233#3 892680233#4 892680233#5 892680233#6 4295231#1 1279673595#0 1279673595#1 1279673595#2 1279673595#3 1279673595#4 1279673595#5 1279673595#6 1279673595#7 382134122#0 382134122#1 72879968#0 72879968#1 72879968#2 -506875003#8 -506875003#7 -506875003#6 -506875003#5 -506875003#4 -506875003#3 -506875003#2 181734860#0 181734860#1"/>
    </vehicle>
    <vehicle id="13" depart="30.44">
        <route edges="-444694995#0 51260925#3 51260925#4 51260924#0 51260924#1 30694471#0 966241685#0 966241685#1 966241685#2 966241685#3 966241685#4 966241685#5 1241934878 1279821707#0 1279821707#1 1279821706#0 1279821706#1 1249008025#0 1249008025#1 174845592#0 174845592#1 174845592#2 1231052756#2 1231052756#3 442236417#0 442236417#1 -442236417#1"/>
    </vehicle>
    <vehicle id="14" depart="32.78">
        <route edges="51260925#2 51260925#3 51260925#4 51260924#0 51260924#1 30694471#0 966241685#0 966241685#1 966241685#2 966241685#3 966241685#4 966241685#5 1241934878 1279821707#0 1279821707#1 1279821706#0 1279821706#1 1249008025#0 1249008025#1 174845592#0 174845592#1 174845592#2 1231052756#2 1231052756#3 442236417#0 442236417#1 442236418"/>
    </vehicle>
    <vehicle id="15" depart="35.12">
        <route edges="5047747#2 1249110834#0 1249110834#1 1249110834#2 1249110834#3 1249110834#4 1249110834#5 1249110834#6 1249110834#7 382134122#0 35103845#0 35103845#1 4295245#4 4295245#5 4295245#6 4295245#7 1274561941#0 1274561941#1 892680233#2 892680233#3 892680233#4 892680233#5 892680233#6 4295231#1 4295231#2 4295231#3 4295231#4 4295231#5 1231322119 4344065#0 193872492#0 193872492#1 738782259#8 30694471#0 966241685#0 485345405"/>
    </vehicle>
    <vehicle id="17" depart="39.80">
        <route edges="191537655#2 -191537655#2 -191537655#1 -191537655#0 892680233#5 892680233#6 4295231#1 4295231#2 4295231#3 4295231#4 4295231#5 4295231#6 4295231#7 380240519#0 380240519#1 380240519#2 380240519#3 380240519#4 380240519#5 489741078#0 489741078#1 73035424#0 73035424#1 73035424#2 73035424#3 73035424#4 73035424#5 73035424#6 433013219#3"/>
    </vehicle>
    <vehicle id="20" depart="46.83">
        <route edges="468748353#2 468748353#3 35103842 506875003#4 506875003#5 506875003#6 506875003#7 506875003#8 506875003#9 506875003#10 1249110834#3 1249110834#4 1249110834#5 1249110834#6 1249110834#7 382134122#0 35103845#0 35103845#1 4295245#4 4295245#5 4295245#6 4295245#7 4295245#8 4295245#9 433013437 892680238 892680236 489741078#0 489741078#1 489741078#2 489741078#3 489741078#4 489741078#5 489741078#6 489741078#7 489741078#8 489741078#9 36326646#4 4623324#3 -193875722"/>
    </vehicle>
    <vehicle id="21" depart="49.17">
        <route edges="-740123541#1 -740123541#0 738782259#0 738782259#1 738782259#2 738782259#3 738782259#4 738782259#5 738782259#6 738782259#7 738782259#8 30694471#0 966241685#0 966241685#1 966241685#2 966241685#3 966241685#4 966241685#5 1241934878 1279821707#0 1279821707#1 1279821706#0 1279821706#1 1249008025#0 1249008025#1 174845592#0 174845592#1 174845592#2 1231052756#2 1231052756#3 4392663#0 4392663#1 4392663#2 1249110835#0 1249110835#1 1249110835#2"/>
    </vehicle>
    <vehicle id="22" depart="51.51">
        <route edges="-442236414#0 1249110835#3 1249110835#4 1249110835#5 1249110834#0 1249110834#1 1249110834#2 1249110834#3 1249110834#4 1249110834#5 1249110834#6 1249110834#7 382134122#0 35103845#0 35103845#1 4295245#4 4295245#5 4295245#6 4295245#7 1274561941#0 1274561941#1 892680233#2 892680233#3 892680233#4 892680233#5 892680233#6 4295231#1 4295231#2 4295231#3 4295231#4 4295231#5 1231322119 4344065#0 4344065#1 4344065#2 4344065#3 4344065#4 4344065#5 632170959#0 632170959#1 632170959#2 632170959#3 632170959#4 632170959#5 738782259#0 738782259#1 485345409#0 485345409#1 485345410#0 485345410#1 51260575#2 51260575#3 51260575#4 51260575#5 1241937493 1241937492 1215790398#0 1215790398#1 1215790398#2"/>
    </vehicle>
    <vehicle id="23" depart="53.85">
        <route edges="-444704524 36326649#14 36326649#15 36326649#16 1274561940#0 1274561940#1 1274561940#2 504760639#6 504760639#7 892680233#0 892680233#1 892680233#2 892680233#3 892680233#4 892680233#5 892680233#6 4295231#1 1279673595#0 1279673595#1 1279673595#2 1279673595#3 1279673595#4 1279673595#5 1279673595#6 1279673595#7 382134122#0 382134122#1 72879968#0 72879968#1 72879968#2 506875003#9 506875003#10 1249110834#3"/>
    </vehicle>
    <vehicle id="24" depart="56.19">
        <route edges="444706197#1 444706197#2 -489741077#1 36326649#1 36326649#2 36326646#3 36326646#4 36326646#5 490358246#0 193875722"/>
    </vehicle>
    <vehicle id="26" depart="60.87">
        <route edges="1231322123 4295231#7 4295231#8 4295231#0 4295231#1 4295231#2 4295231#3 4295231#4 4295231#5 1231322119 4344065#0 4344065#1 4344065#2 4344065#3 4344065#4 4344065#5 632170959#0 632170959#1 632170959#2 632170959#3 632170959#4 632170959#5 740123541#0"/>
    </vehicle>
    <vehicle id="27" depart="63.22">
        <route edges="448629222 -448629222 -35103843#0 468748353#3 35103842 506875003#4 506875003#5 506875003#6 506875003#7 506875003#8 506875003#9 506875003#10 1249110834#3 1249110834#4 1249110834#5 1249110834#6 1249110834#7 382134122#0 35103845#0 35103845#1 4295245#4 4295245#5 4295245#6 4295245#7 1274561941#0 1274561941#1 892680233#2 892680233#3 892680233#4 892680233#5 892680233#6 4295231#1 4295231#2 4295231#3 4295231#4 4295231#5 1231322119 4344065#0 193872492#0 193872492#1 738782259#8 30694471#0 966241685#0 966241685#1 966241685#2 966241685#3 966241685#4 966241685#5 1241934878 1279821707#0 1279821707#1 51260925#0 51260925#1 51260925#2 444694995#0 444694995#1"/>
    </vehicle>
    <vehicle id="28" depart="65.56">
        <route edges="-485345408 485345402#8 485345402#9 966241685#0 485345405"/>
    </vehicle>
    <vehicle id="29" depart="67.90">
        <route edges="-485345402#8 485345402#8 485345402#9 966241685#0 966241685#1 966241685#2 966241685#3 966241685#4 966241685#5 1241934878 1279821707#0 1279821707#1 1279821706#0 1279821706#1 1249008025#0 1249008025#1 1249008025#2 1249008025#3 4295231#5 4295231#6 4295231#7 380240519#0 380240519#1 380240519#2 380240519#3 380240519#4 380240519#5 892680235#0 892680235#1 -36326649#16 -36326649#15 -36326649#14 -36326649#13 -36326649#12 -36326649#11 193899237#2"/>
    </vehicle>
    <vehicle id="31" depart="72.58">
        <route edges="4295245#5 4295245#6 4295245#7 1274561941#0 1274561941#1 892680233#2 892680233#3 892680233#4 892680233#5 892680233#6 4295231#1 4295231#2 4295231#3 1231052756#0 1231052756#1 1231052756#2 1231052756#3 4392663#0 4392663#1 4392663#2 1249110835#0 1249110835#1 1249110835#2 1249110835#3 1249110835#4 1249110835#5 1249110834#0 1249110834#1 442236416#0 442236416#1 467627560"/>
    </vehicle>
    <vehicle id="32" depart="74.92">
        <route edges="51260924#1 30694471#0 966241685#0 966241685#1 966241685#2 966241685#3 966241685#4 966241685#5 1241934878 1279821707#0 1279821707#1 1279821706#0 1279821706#1 1249008025#0 1249008025#1 1249008025#2 1249008025#3 4295231#5 4295231#6 4295231#7 380240519#0 380240519#1 380240519#2 380240519#3 380240519#4 380240519#5 892680235#0 892680235#1 -36326649#16 -36326649#15 -36326649#14 -36326649#13 -36326649#12 -36326649#11 193899237#2 -490358260#2 -490358260#1 -490358260#0 490358260#0 490358260#1"/>
    </vehicle>
    <vehicle id="33" depart="77.26">
        <route edges="-740123541#1 -740123541#0 738782259#0 738782259#1 738782259#2 738782259#3 738782259#4 738782259#5 738782259#6 738782259#7 738782259#8 30694471#0 966241685#0 966241685#1 966241685#2 966241685#3 966241685#4 966241685#5 1241934878 1279821707#0 1279821707#1 1279821706#0 1279821706#1 1249008025#0 1249008025#1 1249008025#2 1249008025#3 4295231#5 4295231#6 4295231#7 4295231#8 4295231#0 4295231#1 1279673595#0 1279673595#1 -187937535#2 -187937535#1 -191537655#2 -191537655#1"/>
    </vehicle>
    <vehicle id="34" depart="79.60">
        <route edges="1274561941#1 892680233#2 892680233#3 892680233#4 892680233#5 892680233#6 4295231#1 4295231#2 4295231#3 4295231#4 4295231#5 1231322119 4344065#0 193872492#0 193872492#1 738782259#8 30694471#0 966241685#0 966241685#1 966241685#2 966241685#3 966241685#4 966241685#5 1241934878 1279821707#0 1279821707#1 1279821706#0 1279821706#1 1249008025#0 1249008025#1"/>
    </vehicle>
    <vehicle id="35" depart="81.95">
        <route edges="-506875003#4 506875003#4 506875003#5 506875003#6 506875003#7 506875003#8 506875003#9 506875003#10 1249110834#3 1249110834#4 1249110834#5 1249110834#6 1249110834#7 382134122#0 35103845#0 35103845#1 4295245#4 4295245#5 4295245#6 4295245#7 1274561941#0 1274561941#1 892680233#2 892680233#3 892680233#4 892680233#5 892680233#6 4295231#1 4295231#2 4295231#3 4295231#4 4295231#5 1231322119 4344065#0 193872492#0 193872492#1 738782259#8 30694471#0 966241685#0 966241685#1 -491134090 30694617#1 30694617#2 1279826715 876037154#0"/>
    </vehicle>
    <vehicle id="37" depart="86.63">
        <route edges="4623324#0 4623324#1 4623324#2 36326646#5 36326646#6 915696360 632170959#0 632170959#1 632170959#2 632170959#3 632170959#4 632170959#5 738782259#0 738782259#1 738782259#2 738782259#3 738782259#4 738782259#5 738782259#6 738782259#7 738782259#8 30694471#0 30694471#1 30694471#2"/>
    </vehicle>
    <vehicle id="39" depart="91.31">
        <route edges="1231322119 4344065#0 193872492#0 193872492#1 738782259#8 30694471#0 966241685#0 966241685#1 966241685#2 966241685#3 966241685#4 966241685#5 1241934878 1279821707#0 1279821707#1 1279821706#0 1279821706#1 1249008025#0 1249008025#1 1249008025#2 1249008025#3 4295231#5 4295231#6 4295231#7 4295231#8 4295231#0 4295231#1 4295231#2 4295231#3 1231052756#0 1231052756#1"/>
    </vehicle>
    <vehicle id="41" depart="95.99">
        <route edges="433013219#3 1231322123 4295231#7 380240519#0 380240519#1 380240519#2 380240519#3 380240519#4 380240519#5 489741078#0 489741078#1 73035424#0 73035424#1 73035424#2 73035424#3 73035424#4"/>
    </vehicle>
    <vehicle id="42" depart="98.34">
        <route edges="193878915 193878909 4623324#2 36326646#5 36326646#6 915696360 632170959#0 632170959#1 632170959#2 632170959#3 632170959#4 632170959#5 738782259#0 738782259#1 738782259#2 738782259#3 738782259#4 738782259#5 36326663#0 36326663#1 -878882581"/>
    </vehicle>
    <vehicle id="43" depart="100.68">
        <route edges="966241685#4 966241685#5 1241934878 1279821707#0 1279821707#1 1279821706#0 1279821706#1 1249008025#0 1249008025#1 1249008025#2 1249008025#3 4295231#5 4295231#6 4295231#7 4295231#8 4295231#0 4295231#1 1279673595#0 1279673595#1 1279673595#2 1279673595#3 1279673595#4 1279673595#5 1279673595#6 1279673595#7 382134122#0 382134122#1 382134122#2 382134122#3 382134122#4 382134122#5 382134122#6 382134122#7"/>
    </vehicle>
    <vehicle id="44" depart="103.02">
        <route edges="-442236419 -95222275#2 -95222275#1 -95222275#0 4392663#1 4392663#2 1249110835#0 1249110835#1 1249110835#2 1249110835#3 1249110835#4 1249110835#5 1249110834#0 1249110834#1 1249110834#2 1249110834#3 1249110834#4 1249110834#5 1249110834#6 1249110834#7 382134122#0 35103845#0 35103845#1 4295245#4 4295245#5 4295245#6 4295245#7 4295245#8 4295245#9 433013437 892680238 892680236 489741078#0 489741078#1 489741078#2 489741078#3 489741078#4 489741078#5 489741078#6 489741078#7 489741078#8 489741078#9 489741078#10 -193878915"/>
    </vehicle>
    <vehicle id="45" depart="105.36">
        <route edges="-448626081#0 448626081#0 448626081#1 448626081#2"/>
    </vehicle>
    <vehicle id="46" depart="107.70">
        <route edges="504760639#2 504760639#3 504760639#4 504760639#5 504760639#6 504760639#7 892680233#0 892680233#1 892680233#2 892680233#3 892680233#4 892680233#5 892680233#6 4295231#1 1279673595#0 1279673595#1 1279673595#2 1279673595#3 1279673595#4 1279673595#5 1279673595#6 1279673595#7 382134122#0 35103845#0"/>
    </vehicle>
    <vehicle id="47" depart="110.04">
        <route edges="-36326649#16 -36326649#15 -36326649#14 -36326649#13 -36326649#12 -36326649#11 193899237#2 193899237#3 193899237#4"/>
    </vehicle>
    <vehicle id="48" depart="112.38">
        <route edges="966241685#3 966241685#4 966241685#5 1241934878 1279821707#0 1279821707#1 1279821706#0 1279821706#1 1249008025#0 1249008025#1 1249008025#2 1249008025#3 4295231#5 4295231#6 4295231#7 4295231#8 4295231#0 4295231#1 1279673595#0 1279673595#1 1279673595#2 1279673595#3 1279673595#4 1279673595#5 1279673595#6 1279673595#7 382134122#0 35103845#0 35103845#1 4295245#4 4295245#5 4295245#6 4295245#7 4295245#8 4295245#9"/>
    </vehicle>
    <vehicle id="49" depart="114.72">
        <route edges="892680235#1 1274561940#0 1274561940#1 1274561940#2 504760639#6 504760639#7 892680233#0 892680233#1 892680233#2 892680233#3 892680233#4 892680233#5 892680233#6 4295231#1 4295231#2 4295231#3 4295231#4 4295231#5 1231322119 4344065#0 4344065#1 4344065#2 4344065#3 4344065#4 4344065#5 632170959#0 632170959#1 632170959#2 632170959#3"/>
    </vehicle>
    <vehicle id="50" depart="117.07">
        <route edges="-1234090260 36326649#15 36326649#16 1274561940#0 1274561940#1 1274561940#2 504760639#6 504760639#7 892680233#0 892680233#1 892680233#2 892680233#3 892680233#4 892680233#5 892680233#6 4295231#1 4295231#2 4295231#3 4295231#4 4295231#5 1231322119 4344065#0 193872492#0 193872492#1 738782259#8 30694471#0 -485345402#9 -485345402#8 -485345402#7 -485345402#6 485345402#6"/>
    </vehicle>
    <vehicle id="54" depart="126.43">
        <route edges="35103843#0 -35103843#0 468748353#3 35103842 506875003#4 506875003#5 506875003#6 506875003#7 506875003#8 506875003#9 506875003#10 1249110834#3 1249110834#4 1249110834#5 1249110834#6 1249110834#7 382134122#0 35103845#0 35103845#1 4295245#4 4295245#5 4295245#6 4295245#7 4295245#8 4295245#9 892680233#0 892680233#1"/>
    </vehicle>
    <vehicle id="56" depart="131.11">
        <route edges="36326649#7 36326649#8 36326649#9 36326649#10 193899237#2 -490358260#2 -490358260#1"/>
    </vehicle>
    <vehicle id="58" depart="135.80">
        <route edges="1249110835#0 1249110835#1 1249110835#2 1249110835#3 1249110835#4 1249110835#5 468748353#0 468748353#1 468748353#2 35103843#0 448629222"/>
    </vehicle>
    <vehicle id="59" depart="138.14">
        <route edges="4344066#3 915696360 632170959#0 632170959#1 632170959#2 632170959#3 632170959#4 632170959#5 738782259#0 738782259#1 738782259#2 738782259#3 738782259#4 738782259#5 738782259#6 738782259#7 738782259#8 30694471#0 -485345402#9 -485345402#8"/>
    </vehicle>
    <vehicle id="60" depart="140.48">
        <route edges="489741078#7 489741078#8 489741078#9 36326646#4 4623324#3 4623324#4 433013218#3 433013218#4 433013218#5"/>
    </vehicle>
    <vehicle id="61" depart="142.82">
        <route edges="490358260#2 193899237#3 489741078#4 489741078#5 489741078#6 489741078#7 489741078#8 489741078#9 36326646#4 36326646#5 36326646#6 632170957#0 632170957#1 632170957#2 632170957#3 433013218#0"/>
    </vehicle>
    <vehicle id="62" depart="145.16">
        <route edges="-1071888885 193872132#1 51260575#3 51260575#4 51260575#5 1241937493 1241937492 1215790398#0 1215790398#1 1215790398#2 1215790398#3 30694471#3 30694617#0 30694617#1 30694617#2 1279826715 876037154#0 876037154#1 876037154#2 1279821707#0 1279821707#1"/>
    </vehicle>
    <vehicle id="63" depart="147.50">
        <route edges="-187937535#2 -187937535#1 -191537655#2 -191537655#1 -191537655#0 892680233#5 892680233#6 4295231#1 4295231#2 4295231#3 4295231#4 4295231#5 1231322119 4344065#0 193872492#0 193872492#1 738782259#8 30694471#0 -485345402#9 -485345402#8 -485345402#7 -485345402#6 740122918#1 740122918#2"/>
    </vehicle>
    <vehicle id="65" depart="152.19">
        <route edges="1274561940#0 1274561940#1 1274561940#2 504760639#6 504760639#7 892680233#0 892680233#1 892680233#2 892680233#3 892680233#4 892680233#5 892680233#6 4295231#1 4295231#2 4295231#3 1231052756#0 1231052756#1 1231052756#2 1231052756#3 4392663#0 4392663#1 4392663#2 1249110835#0 1249110835#1 1249110835#2 1249110835#3 1249110835#4 1249110835#5 468748353#0 468748353#1 468748353#2 35103843#0 -35103843#0"/>
    </vehicle>
    <vehicle id="67" depart="156.87">
        <route edges="-442236417#0 4392663#0 4392663#1 4392663#2 1249110835#0 1249110835#1 1249110835#2 1249110835#3 1249110835#4 1249110835#5 1249110834#0 1249110834#1 1249110834#2 1249110834#3 1249110834#4 1249110834#5 1249110834#6 1249110834#7 382134122#0 35103845#0 35103845#1 4295245#4 4295245#5 4295245#6 4295245#7 1274561941#0 1274561941#1 892680233#2 892680233#3 892680233#4 892680233#5 892680233#6 4295231#1 4295231#2 4295231#3 4295231#4 4295231#5 4295231#6 4295231#7 380240519#0 380240519#1"/>
    </vehicle>
    <vehicle id="68" depart="159.21">
        <route edges="-36326649#4 36326649#4 36326649#5 36326649#6 36326649#7 36326649#8 36326649#9 36326649#10 193899237#2 193899237#3 489741078#4 489741078#5"/>
    </vehicle>
    <vehicle id="69" depart="161.55">
        <route edges="489741078#9 36326646#4 36326646#5 36326646#6 632170957#0 632170957#1 632170957#2 632170957#3 433013219#0 433013219#1 433013219#2 433013219#3 1231322123 4295231#7 4295231#8 4295231#0 4295231#1 1279673595#0 1279673595#1 1279673595#2 1279673595#3 -467627562#3 -467627562#2"/>
    </vehicle>
    <vehicle id="70" depart="163.89">
        <route edges="36326646#6 632170957#0 632170957#1 632170957#2 632170957#3 433013219#0 433013219#1 433013219#2"/>
    </vehicle>
    <vehicle id="71" depart="166.23">
        <route edges="1231322119 4344065#0 193872492#0 193872492#1 738782259#8 30694471#0 966241685#0 966241685#1 966241685#2 966241685#3 966241685#4 966241685#5 1241934878 1279821707#0 1279821707#1 1279821706#0 1279821706#1 1249008025#0 1249008025#1 174845592#0 174845592#1 174845592#2 1231052756#2 1231052756#3 4392663#0 4392663#1 4392663#2 1249110835#0 1249110835#1 1249110835#2 1249110835#3 1249110835#4 1249110835#5 1249110834#0 1249110834#1 1249110834#2 -506875003#10 -506875003#9 -506875003#8 -506875003#7 -506875003#6 -506875003#5 -506875003#4 72879917#0 72879917#1 72879917#2 72879917#3"/>
    </vehicle>
    <vehicle id="72" depart="168.58">
        <route edges="193899237#8 193899237#9 193899237#10 433013219#2 433013219#3 1231322123 4295231#7 380240519#0 380240519#1 380240519#2 380240519#3 380240519#4 380240519#5 489741078#0 489741078#1 489741078#2 489741078#3 489741078#4 489741078#5 433013218#4 433013218#5 433013218#6 433013218#7 -36326649#6 -36326649#5 -36326649#4 593778044 -593778044"/>
    </vehicle>
    <vehicle id="74" depart="173.26">
        <route edges="-491358741 30694624#1 1241937492 1215790398#0 1215790398#1 1215790398#2 1215790398#3 30694471#3 30694617#0 30694617#1 30694617#2 1279826715 876037154#0 876037154#1 876037154#2 1279821707#0 1279821707#1 1279821706#0 1279821706#1 1249008025#0 1249008025#1 1249008025#2 1249008025#3 4295231#5 4295231#6 4295231#7 4295231#8 4295231#0 4295231#1 1279673595#0 1279673595#1 1279673595#2 1279673595#3"/>
    </vehicle>
    <vehicle id="75" depart="175.60">
        <route edges="966241685#3 966241685#4 966241685#5 1241934878 1279821707#0 1279821707#1 1279821706#0 1279821706#1 1249008025#0 1249008025#1 1249008025#2 1249008025#3 4295231#5 4295231#6 4295231#7 380240519#0 380240519#1 380240519#2 380240519#3 380240519#4 380240519#5 489741078#0 489741078#1 73035424#0 73035424#1 73035424#2 4623324#10 4623324#11 4623324#12"/>
    </vehicle>
    <vehicle id="78" depart="182.62">
        <route edges="1279821707#1 1279821706#0 1279821706#1 1249008025#0 1249008025#1 174845592#0 174845592#1 174845592#2 1231052756#2 1231052756#3 4392663#0 4392663#1 4392663#2 4392663#3 4392663#4 4392663#5"/>
    </vehicle>
    <vehicle id="79" depart="184.96">
        <route edges="-740123541#2 -740123541#1 -740123541#0 738782259#0 738782259#1 738782259#2 738782259#3 738782259#4 738782259#5 738782259#6 738782259#7 738782259#8 30694471#0 966241685#0 966241685#1 966241685#2 966241685#3 966241685#4 966241685#5 1241934878 1279821707#0 1279821707#1 1279821706#0 1279821706#1 1249008025#0 1249008025#1 174845592#0 174845592#1 174845592#2 1231052756#2 1231052756#3 442236417#0 442236417#1 442236418 -879268396"/>
    </vehicle>
    <vehicle id="80" depart="187.31">
        <route edges="-36326649#5 36326649#5 36326649#6 36326649#7 36326649#8 36326649#9 36326649#10 36326649#11 36326649#12 36326649#13 36326649#14 36326649#15 36326649#16 1274561940#0 1274561940#1 1274561940#2 504760639#6 504760639#7 892680233#0 892680233#1 892680233#2 892680233#3 892680233#4 892680233#5 892680233#6 4295231#1 1279673595#0 1279673595#1 1279673595#2 1279673595#3 1279673595#4 1279673595#5 1279673595#6 1279673595#7 382134122#0 382134122#1 72879968#0 72879968#1 72879968#2 506875003#9 506875003#10 1249110834#3 448626085#0"/>
    </vehicle>
    <vehicle id="82" depart="191.99">
        <route edges="632170957#2 632170957#3 433013219#0 433013219#1 433013219#2 433013219#3 1231322123 4295231#7 380240519#0 380240519#1 380240519#2 380240519#3 380240519#4 380240519#5 892680235#0 892680235#1 -36326649#16 -36326649#15 -36326649#14"/>
    </vehicle>
    <vehicle id="83" depart="194.33">
        <route edges="-95222275#0 4392663#1 4392663#2 4392663#3 4392663#4 -464583141#2 -464583141#1 -464583141#0 464583141#0 464583141#1"/>
    </vehicle>
    <vehicle id="84" depart="196.67">
        <route edges="-506875003#6 -506875003#5 -506875003#4 506875003#4 506875003#5 506875003#6 506875003#7 506875003#8 506875003#9 506875003#10 1249110834#3 1249110834#4 1249110834#5 1249110834#6 1249110834#7 382134122#0 35103845#0 35103845#1 4295245#4 4295245#5 4295245#6 4295245#7 1274561941#0 1274561941#1 892680233#2 892680233#3 892680233#4 892680233#5 892680233#6 4295231#1 1279673595#0 1279673595#1 1279673595#2 1279673595#3 -467627562#3 -467627562#2 -467627562#1 467627563 -467627564 467627564 -467627563"/>
    </vehicle>
    <vehicle id="85" depart="199.01">
        <route edges="740122918#1 740122918#2 740122918#3 740122918#4 740122918#5 738782259#4 738782259#5 36326663#0 36326663#1 36326663#2 36326663#3 36326663#4 4344065#2 4344065#3 4344065#4 4344065#5 4344065#6 4344065#7 4344065#8 4344065#9"/>
    </vehicle>
    <vehicle id="86" depart="201.35">
        <route edges="36326646#5 36326646#6 915696360 632170959#0 632170959#1 632170959#2 632170959#3 632170959#4 632170959#5 738782259#0 738782259#1 485345409#0 485345409#1 485345410#0 485345410#1 51260575#2 51260575#3 51260575#4 51260575#5 1241937493 1241937492 1215790398#0 1215790398#1 491358743"/>
    </vehicle>
    <vehicle id="87" depart="203.69">
        <route edges="506875003#0 506875003#1 -506875003#1 -506875003#0"/>
    </vehicle>
    <vehicle id="88" depart="206.04">
        <route edges="-444704517 193899237#6 4623324#8 4623324#9 4623324#10 4623324#11 4623324#12 4623324#13 380240519#3 380240519#4 380240519#5 489741078#0 489741078#1 489741078#2 489741078#3 489741078#4 489741078#5 433013218#4 433013218#5 433013218#6 433013218#7 -36326649#6 -36326649#5 -36326649#4 593778044 36326646#1 36326646#2"/>
    </vehicle>
    <vehicle id="89" depart="208.38">
        <route edges="193899237#8 193899237#9 193899237#10 433013219#2 433013219#3 1231322123 4295231#7 380240519#0 380240519#1 380240519#2 380240519#3 380240519#4 380240519#5 489741078#0 489741078#1 489741078#2 489741078#3 489741078#4 489741078#5 433013218#4 433013218#5 433013218#6 433013218#7 36326649#7 36326649#8 36326649#9"/>
    </vehicle>
    <vehicle id="91" depart="213.06">
        <route edges="915696360 632170959#0 632170959#1 632170959#2 632170959#3 632170959#4 632170959#5 738782259#0 738782259#1 738782259#2 738782259#3 738782259#4 738782259#5 738782259#6 738782259#7 738782259#8 30694471#0 966241685#0 966241685#1 966241685#2 966241685#3 966241685#4 966241685#5 1241934878 1279821707#0 1279821707#1 1279821706#0 1279821706#1 1249008025#0 1249008025#1 174845592#0 174845592#1 174845592#2 1231052756#2 1231052756#3 442236417#0 442236417#1 442236418 -879268396 879268396 -442236418"/>
    </vehicle>
    <vehicle id="92" depart="215.40">
        <route edges="193882595#0 193882595#1 489741078#9 36326646#4 36326646#5 36326646#6 632170957#0 632170957#1 632170957#2 632170957#3 433013219#0 433013219#1 433013219#2 433013219#3 1231322123 4295231#7 4295231#8 4295231#0 4295231#1 1279673595#0 1279673595#1 -187937535#2 -187937535#1 187937535#1"/>
    </vehicle>
    <vehicle id="93" depart="217.74">
        <route edges="632170957#3 433013219#0 433013219#1 433013219#2 433013219#3 1231322123 4295231#7 4295231#8 4295231#0 4295231#1 4295231#2 4295231#3 1231052756#0 1231052756#1 1231052756#2"/>
    </vehicle>
    <vehicle id="94" depart="220.08">
        <route edges="-490358246#0 490358246#0 193875722 4623324#4 433013218#3 433013218#4 433013218#5 433013218#6 433013218#7 36326649#7 36326649#8 36326649#9 36326649#10 36326649#11 36326649#12 36326649#13"/>
    </vehicle>
    <vehicle id="95" depart="222.43">