<?xml version="1.0" encoding="UTF-8"?>

<!-- generated on 2025-06-06 00:34:58 by Eclipse SUMO netconvert Version 1.23.1
<netconvertConfiguration xmlns:xsi="http://www.w3.org/2001/XMLSchema-instance" xsi:noNamespaceSchemaLocation="http://sumo.dlr.de/xsd/netconvertConfiguration.xsd">

    <input>
        <osm-files value="map.osm.xml"/>
    </input>

    <output>
        <output-file value="map.net.xml"/>
    </output>

    <projection>
        <proj.utm value="true"/>
    </projection>

</netconvertConfiguration>
-->

<net version="1.20" junctionCornerDetail="5" limitTurnSpeed="5.50" xmlns:xsi="http://www.w3.org/2001/XMLSchema-instance" xsi:noNamespaceSchemaLocation="http://sumo.dlr.de/xsd/net_file.xsd">

    <location netOffset="-528268.81,-3949620.61" convBoundary="0.00,0.00,12251.92,2030.71" origBoundary="51.312471,35.689661,51.447843,35.708155" projParameter="+proj=utm +zone=39 +ellps=WGS84 +datum=WGS84 +units=m +no_defs"/>

    <type id="highway.busway" priority="1" numLanes="1" speed="27.78" allow="bus" oneway="1"/>
    <type id="highway.footway" priority="1" numLanes="1" speed="2.78" allow="pedestrian" oneway="1" width="2.00"/>
    <type id="highway.primary" priority="12" numLanes="2" speed="27.78" disallow="tram rail_urban rail rail_electric rail_fast ship container cable_car subway aircraft wheelchair scooter drone" oneway="0"/>
    <type id="highway.primary_link" priority="7" numLanes="1" speed="22.22" disallow="tram rail_urban rail rail_electric rail_fast ship container cable_car subway aircraft wheelchair scooter drone" oneway="0"/>
    <type id="highway.residential" priority="3" numLanes="1" speed="13.89" disallow="tram rail_urban rail rail_electric rail_fast ship container cable_car subway aircraft wheelchair scooter drone" oneway="0"/>
    <type id="highway.secondary" priority="11" numLanes="1" speed="27.78" disallow="tram rail_urban rail rail_electric rail_fast ship container cable_car subway aircraft wheelchair scooter drone" oneway="0"/>
    <type id="highway.secondary_link" priority="6" numLanes="1" speed="22.22" disallow="tram rail_urban rail rail_electric rail_fast ship container cable_car subway aircraft wheelchair scooter drone" oneway="0"/>
    <type id="highway.service" priority="1" numLanes="1" speed="5.56" allow="pedestrian delivery bicycle" oneway="0"/>
    <type id="highway.steps" priority="1" numLanes="1" speed="1.39" allow="pedestrian" oneway="1" width="2.00"/>
    <type id="highway.tertiary" priority="10" numLanes="1" speed="22.22" disallow="tram rail_urban rail rail_electric rail_fast ship container cable_car subway aircraft wheelchair scooter drone" oneway="0"/>
    <type id="highway.tertiary_link" priority="5" numLanes="1" speed="22.22" disallow="tram rail_urban rail rail_electric rail_fast ship container cable_car subway aircraft wheelchair scooter drone" oneway="0"/>
    <type id="highway.unclassified" priority="4" numLanes="1" speed="13.89" disallow="tram rail_urban rail rail_electric rail_fast ship container cable_car subway aircraft wheelchair scooter drone" oneway="0"/>
    <type id="railway.subway" priority="18" numLanes="1" speed="27.78" allow="subway" oneway="1"/>

    <edge id=":10123761438_0" function="internal">
        <lane id=":10123761438_0_0" index="0" disallow="tram rail_urban rail rail_electric rail_fast ship container cable_car subway aircraft wheelchair scooter drone" speed="8.33" length="3.74" shape="7091.70,1365.23 7087.96,1365.13"/>
    </edge>
    <edge id=":10123761438_1" function="internal">
        <lane id=":10123761438_1_0" index="0" disallow="tram rail_urban rail rail_electric rail_fast ship container cable_car subway aircraft wheelchair scooter drone" speed="8.33" length="3.74" shape="7088.04,1361.94 7091.77,1362.03"/>
    </edge>
    <edge id=":10123761440_0" function="internal">
        <lane id=":10123761440_0_0" index="0" disallow="tram rail_urban rail rail_electric rail_fast ship container cable_car subway aircraft wheelchair scooter drone" speed="13.89" length="1.33" shape="7117.77,1362.70 7116.51,1362.28"/>
    </edge>
    <edge id=":10123761440_1" function="internal">
        <lane id=":10123761440_1_0" index="0" disallow="tram rail_urban rail rail_electric rail_fast ship container cable_car subway aircraft wheelchair scooter drone" speed="13.89" length="1.40" shape="7117.36,1359.20 7118.69,1359.63"/>
    </edge>
    <edge id=":10123761441_0" function="internal">
        <lane id=":10123761441_0_0" index="0" disallow="tram rail_urban rail rail_electric rail_fast ship container cable_car subway aircraft wheelchair scooter drone" speed="8.33" length="1.37" shape="7123.69,1310.22 7122.38,1309.83"/>
    </edge>
    <edge id=":10123761441_1" function="internal">
        <lane id=":10123761441_1_0" index="0" disallow="tram rail_urban rail rail_electric rail_fast ship container cable_car subway aircraft wheelchair scooter drone" speed="8.33" length="1.37" shape="7123.30,1306.76 7124.61,1307.15"/>
    </edge>
    <edge id=":10123761444_0" function="internal">
        <lane id=":10123761444_0_0" index="0" disallow="tram rail_urban rail rail_electric rail_fast ship container cable_car subway aircraft wheelchair scooter drone" speed="13.89" length="5.01" shape="7187.51,1267.55 7185.87,1262.81"/>
    </edge>
    <edge id=":10123761444_1" function="internal">
        <lane id=":10123761444_1_0" index="0" disallow="tram rail_urban rail rail_electric rail_fast ship container cable_car subway aircraft wheelchair scooter drone" speed="13.89" length="5.04" shape="7188.89,1261.75 7190.54,1266.51"/>
    </edge>
    <edge id=":10287389573_0" function="internal">
        <lane id=":10287389573_0_0" index="0" disallow="tram rail_urban rail rail_electric rail_fast ship container cable_car subway aircraft wheelchair scooter drone" speed="13.89" length="4.68" shape="6847.62,1205.95 6849.08,1201.50"/>
    </edge>
    <edge id=":10287389575_0" function="internal">
        <lane id=":10287389575_0_0" index="0" disallow="tram rail_urban rail rail_electric rail_fast ship container cable_car subway aircraft wheelchair scooter drone" speed="8.33" length="2.90" shape="7128.97,1045.37 7126.14,1044.74"/>
    </edge>
    <edge id=":10287389580_0" function="internal">
        <lane id=":10287389580_0_0" index="0" disallow="tram rail_urban rail rail_electric rail_fast ship container cable_car subway aircraft wheelchair scooter drone" speed="11.11" length="3.24" shape="7257.51,1214.67 7257.29,1217.90"/>
    </edge>
    <edge id=":10287389584_0" function="internal">
        <lane id=":10287389584_0_0" index="0" disallow="tram rail_urban rail rail_electric rail_fast ship container cable_car subway aircraft wheelchair scooter drone" speed="11.11" length="4.63" shape="7389.07,1257.12 7390.64,1252.76"/>
        <lane id=":10287389584_0_1" index="1" disallow="tram rail_urban rail rail_electric rail_fast ship container cable_car subway aircraft wheelchair scooter drone" speed="11.11" length="4.63" shape="7392.09,1258.20 7393.65,1253.84"/>
    </edge>
    <edge id=":10981143179_0" function="internal">
        <lane id=":10981143179_0_0" index="0" disallow="tram rail_urban rail rail_electric rail_fast ship container cable_car subway aircraft wheelchair scooter drone" speed="16.67" length="0.10" shape="7182.14,715.26 7182.14,715.26"/>
        <lane id=":10981143179_0_1" index="1" disallow="tram rail_urban rail rail_electric rail_fast ship container cable_car subway aircraft wheelchair scooter drone" speed="16.67" length="0.10" shape="7178.96,714.90 7178.96,714.90"/>
    </edge>
    <edge id=":10981143180_0" function="internal">
        <lane id=":10981143180_0_0" index="0" disallow="tram rail_urban rail rail_electric rail_fast ship container cable_car subway aircraft wheelchair scooter drone" speed="16.67" length="0.30" shape="7168.41,715.35 7168.44,715.05"/>
        <lane id=":10981143180_0_1" index="1" disallow="tram rail_urban rail rail_electric rail_fast ship container cable_car subway aircraft wheelchair scooter drone" speed="16.67" length="0.30" shape="7171.59,715.70 7171.62,715.40"/>
    </edge>
    <edge id=":10981143185_0" function="internal">
        <lane id=":10981143185_0_0" index="0" allow="emergency authority bus bicycle" speed="5.56" length="0.31" shape="7163.71,708.45 7164.02,708.42"/>
    </edge>
    <edge id=":10981143185_1" function="internal">
        <lane id=":10981143185_1_0" index="0" allow="emergency authority bus bicycle" speed="5.56" length="0.37" shape="7163.80,705.22 7163.43,705.26"/>
    </edge>
    <edge id=":10989398912_0" function="internal">
        <lane id=":10989398912_0_0" index="0" disallow="tram rail_urban rail rail_electric rail_fast ship container cable_car subway aircraft wheelchair scooter drone" speed="11.11" length="5.14" shape="7148.12,1117.71 7142.98,1117.51"/>
    </edge>
    <edge id=":10989398913_0" function="internal">
        <lane id=":10989398913_0_0" index="0" disallow="tram rail_urban rail rail_electric rail_fast ship container cable_car subway aircraft wheelchair scooter drone" speed="8.33" length="4.50" shape="7156.35,1028.46 7151.84,1028.33"/>
    </edge>
    <edge id=":11001514718_0" function="internal">
        <lane id=":11001514718_0_0" index="0" disallow="tram rail_urban rail rail_electric rail_fast ship container cable_car subway aircraft wheelchair scooter drone" speed="16.67" length="7.38" shape="7023.15,1243.53 7016.15,1241.20"/>
        <lane id=":11001514718_0_1" index="1" disallow="tram rail_urban rail rail_electric rail_fast ship container cable_car subway aircraft wheelchair scooter drone" speed="16.67" length="7.38" shape="7024.16,1240.49 7017.16,1238.16"/>
    </edge>
    <edge id=":11001514719_0" function="internal">
        <lane id=":11001514719_0_0" index="0" disallow="tram rail_urban rail rail_electric rail_fast ship container cable_car subway aircraft wheelchair scooter drone" speed="16.67" length="7.34" shape="7015.59,1212.36 7022.49,1210.57"/>
        <lane id=":11001514719_0_1" index="1" disallow="tram rail_urban rail rail_electric rail_fast ship container cable_car subway aircraft wheelchair scooter drone" speed="16.67" length="7.34" shape="7016.28,1215.48 7023.39,1213.64"/>
        <lane id=":11001514719_0_2" index="2" disallow="tram rail_urban rail rail_electric rail_fast ship container cable_car subway aircraft wheelchair scooter drone" speed="16.67" length="7.34" shape="7016.98,1218.61 7024.29,1216.71"/>
    </edge>
    <edge id=":11001514722_0" function="internal">
        <lane id=":11001514722_0_0" index="0" allow="bus bicycle" speed="5.56" length="5.16" shape="7103.91,1292.04 7104.47,1286.92"/>
    </edge>
    <edge id=":11001514723_0" function="internal">
        <lane id=":11001514723_0_0" index="0" disallow="tram rail_urban rail rail_electric rail_fast ship container cable_car subway aircraft wheelchair scooter drone" speed="16.67" length="5.55" shape="7123.22,1288.16 7122.65,1293.64"/>
        <lane id=":11001514723_0_1" index="1" disallow="tram rail_urban rail rail_electric rail_fast ship container cable_car subway aircraft wheelchair scooter drone" speed="16.67" length="5.55" shape="7120.04,1287.82 7119.47,1293.33"/>
        <lane id=":11001514723_0_2" index="2" disallow="tram rail_urban rail rail_electric rail_fast ship container cable_car subway aircraft wheelchair scooter drone" speed="16.67" length="5.55" shape="7116.86,1287.47 7116.28,1293.01"/>
        <lane id=":11001514723_0_3" index="3" disallow="tram rail_urban rail rail_electric rail_fast ship container cable_car subway aircraft wheelchair scooter drone" speed="16.67" length="5.55" shape="7113.68,1287.13 7113.10,1292.69"/>
    </edge>
    <edge id=":11001514723_4" function="internal">
        <lane id=":11001514723_4_0" index="0" allow="bus bicycle" speed="16.67" length="5.62" shape="7109.91,1292.37 7110.50,1286.78"/>
    </edge>
    <edge id=":11001514723_5" function="internal">
        <lane id=":11001514723_5_0" index="0" allow="bus bicycle" speed="3.65" length="1.44" shape="7109.91,1292.37 7110.83,1291.26"/>
    </edge>
    <edge id=":11001514723_6" function="internal">
        <lane id=":11001514723_6_0" index="0" allow="bus bicycle" speed="3.65" length="3.23" shape="7110.83,1291.26 7111.66,1290.94 7112.42,1291.42 7113.10,1292.69"/>
    </edge>
    <edge id=":11001514725_0" function="internal">
        <lane id=":11001514725_0_0" index="0" allow="pedestrian bus" speed="27.78" length="3.95" shape="7577.24,1239.65 7581.19,1239.76"/>
    </edge>
    <edge id=":11001514726_0" function="internal">
        <lane id=":11001514726_0_0" index="0" disallow="tram rail_urban rail rail_electric rail_fast ship container cable_car subway aircraft wheelchair scooter drone" speed="16.67" length="4.01" shape="7577.41,1230.87 7581.42,1230.99"/>
        <lane id=":11001514726_0_1" index="1" disallow="tram rail_urban rail rail_electric rail_fast ship container cable_car subway aircraft wheelchair scooter drone" speed="16.67" length="4.01" shape="7577.31,1234.06 7581.32,1234.19"/>
        <lane id=":11001514726_0_2" index="2" disallow="tram rail_urban rail rail_electric rail_fast ship container cable_car subway aircraft wheelchair scooter drone" speed="16.67" length="4.01" shape="7577.21,1237.26 7581.22,1237.39"/>
    </edge>
    <edge id=":11001514727_0" function="internal">
        <lane id=":11001514727_0_0" index="0" allow="bus bicycle" speed="13.89" length="4.00" shape="7581.13,1243.98 7577.13,1243.87"/>
    </edge>
    <edge id=":11001514728_0" function="internal">
        <lane id=":11001514728_0_0" index="0" disallow="tram rail_urban rail rail_electric rail_fast ship container cable_car subway aircraft wheelchair scooter drone" speed="16.67" length="5.08" shape="7581.00,1253.52 7575.92,1253.40"/>
        <lane id=":11001514728_0_1" index="1" disallow="tram rail_urban rail rail_electric rail_fast ship container cable_car subway aircraft wheelchair scooter drone" speed="16.67" length="5.08" shape="7581.08,1250.33 7576.00,1250.20"/>
    </edge>
    <edge id=":11007256389_0" function="internal">
        <lane id=":11007256389_0_0" index="0" disallow="tram rail_urban rail rail_electric rail_fast ship container cable_car subway aircraft wheelchair scooter drone" speed="16.67" length="5.12" shape="7282.30,1245.74 7277.24,1245.69"/>
        <lane id=":11007256389_0_1" index="1" disallow="tram rail_urban rail rail_electric rail_fast ship container cable_car subway aircraft wheelchair scooter drone" speed="16.67" length="5.12" shape="7282.40,1242.54 7277.21,1242.49"/>
    </edge>
    <edge id=":11007256390_0" function="internal">
        <lane id=":11007256390_0_0" index="0" allow="pedestrian bus" speed="27.78" length="5.12" shape="7277.28,1230.63 7282.40,1230.84"/>
    </edge>
    <edge id=":11007256391_0" function="internal">
        <lane id=":11007256391_0_0" index="0" disallow="tram rail_urban rail rail_electric rail_fast ship container cable_car subway aircraft wheelchair scooter drone" speed="16.67" length="5.17" shape="7277.38,1223.03 7282.51,1223.26"/>
        <lane id=":11007256391_0_1" index="1" disallow="tram rail_urban rail rail_electric rail_fast ship container cable_car subway aircraft wheelchair scooter drone" speed="16.67" length="5.17" shape="7277.20,1226.23 7282.41,1226.46"/>
    </edge>
    <edge id=":11007256393_0" function="internal">
        <lane id=":11007256393_0_0" index="0" disallow="tram rail_urban rail rail_electric rail_fast ship container cable_car subway aircraft wheelchair scooter drone" speed="16.67" length="4.14" shape="7386.57,1248.77 7382.44,1248.65"/>
        <lane id=":11007256393_0_1" index="1" disallow="tram rail_urban rail rail_electric rail_fast ship container cable_car subway aircraft wheelchair scooter drone" speed="16.67" length="4.14" shape="7386.67,1245.58 7382.53,1245.45"/>
    </edge>
    <edge id=":11007256394_0" function="internal">
        <lane id=":11007256394_0_0" index="0" allow="bus bicycle" speed="13.89" length="5.07" shape="7387.94,1238.98 7382.87,1238.86"/>
    </edge>
    <edge id=":11007256395_0" function="internal">
        <lane id=":11007256395_0_0" index="0" allow="pedestrian bus" speed="27.78" length="5.04" shape="7383.10,1234.19 7388.13,1234.36"/>
    </edge>
    <edge id=":11007256396_0" function="internal">
        <lane id=":11007256396_0_0" index="0" disallow="tram rail_urban rail rail_electric rail_fast ship container cable_car subway aircraft wheelchair scooter drone" speed="16.67" length="5.17" shape="7383.40,1226.45 7388.57,1226.61"/>
        <lane id=":11007256396_0_1" index="1" disallow="tram rail_urban rail rail_electric rail_fast ship container cable_car subway aircraft wheelchair scooter drone" speed="16.67" length="5.17" shape="7383.30,1229.65 7388.47,1229.81"/>
    </edge>
    <edge id=":11007256398_0" function="internal">
        <lane id=":11007256398_0_0" index="0" allow="bus bicycle" speed="13.89" length="5.03" shape="7412.34,1239.80 7407.31,1239.63"/>
    </edge>
    <edge id=":11007256399_0" function="internal">
        <lane id=":11007256399_0_0" index="0" allow="pedestrian bus" speed="27.78" length="5.04" shape="7407.49,1235.00 7412.53,1235.15"/>
    </edge>
    <edge id=":11007256400_0" function="internal">
        <lane id=":11007256400_0_0" index="0" disallow="tram rail_urban rail rail_electric rail_fast ship container cable_car subway aircraft wheelchair scooter drone" speed="16.67" length="5.34" shape="7407.81,1225.62 7413.15,1225.78"/>
        <lane id=":11007256400_0_1" index="1" disallow="tram rail_urban rail rail_electric rail_fast ship container cable_car subway aircraft wheelchair scooter drone" speed="16.67" length="5.34" shape="7407.72,1228.81 7413.05,1228.98"/>
        <lane id=":11007256400_0_2" index="2" disallow="tram rail_urban rail rail_electric rail_fast ship container cable_car subway aircraft wheelchair scooter drone" speed="16.67" length="5.34" shape="7407.62,1232.01 7412.95,1232.18"/>
    </edge>
    <edge id=":11015868578_0" function="internal">
        <lane id=":11015868578_0_0" index="0" disallow="tram rail_urban rail rail_electric rail_fast ship container cable_car subway aircraft wheelchair scooter drone" speed="16.67" length="4.97" shape="7159.54,796.35 7160.11,791.43"/>
        <lane id=":11015868578_0_1" index="1" disallow="tram rail_urban rail rail_electric rail_fast ship container cable_car subway aircraft wheelchair scooter drone" speed="16.67" length="4.97" shape="7162.72,796.73 7163.29,791.78"/>
    </edge>
    <edge id=":11015868579_0" function="internal">
        <lane id=":11015868579_0_0" index="0" disallow="tram rail_urban rail rail_electric rail_fast ship container cable_car subway aircraft wheelchair scooter drone" speed="16.67" length="4.79" shape="7173.37,792.67 7172.88,797.40"/>
        <lane id=":11015868579_0_1" index="1" disallow="tram rail_urban rail rail_electric rail_fast ship container cable_car subway aircraft wheelchair scooter drone" speed="16.67" length="4.79" shape="7170.19,792.31 7169.70,797.10"/>
    </edge>
    <edge id=":11015868580_0" function="internal">
        <lane id=":11015868580_0_0" index="0" disallow="tram rail_urban rail rail_electric rail_fast ship container cable_car subway aircraft wheelchair scooter drone" speed="16.67" length="4.63" shape="7157.61,814.34 7158.08,809.76"/>
        <lane id=":11015868580_0_1" index="1" disallow="tram rail_urban rail rail_electric rail_fast ship container cable_car subway aircraft wheelchair scooter drone" speed="16.67" length="4.63" shape="7160.79,814.69 7161.26,810.06"/>
    </edge>
    <edge id=":11015868581_0" function="internal">
        <lane id=":11015868581_0_0" index="0" disallow="tram rail_urban rail rail_electric rail_fast ship container cable_car subway aircraft wheelchair scooter drone" speed="16.67" length="4.81" shape="7171.36,810.81 7170.78,815.55"/>
        <lane id=":11015868581_0_1" index="1" disallow="tram rail_urban rail rail_electric rail_fast ship container cable_car subway aircraft wheelchair scooter drone" speed="16.67" length="4.81" shape="7168.19,810.38 7167.60,815.19"/>
    </edge>
    <edge id=":11015868584_0" function="internal">
        <lane id=":11015868584_0_0" index="0" disallow="tram rail_urban rail rail_electric rail_fast ship container cable_car subway aircraft wheelchair scooter drone" speed="16.67" length="3.01" shape="7159.82,912.46 7159.48,915.45"/>
        <lane id=":11015868584_0_1" index="1" disallow="tram rail_urban rail rail_electric rail_fast ship container cable_car subway aircraft wheelchair scooter drone" speed="16.67" length="3.01" shape="7156.64,912.10 7156.30,915.10"/>
    </edge>
    <edge id=":11020156758_0" function="internal">
        <lane id=":11020156758_0_0" index="0" disallow="tram rail_urban rail rail_electric rail_fast ship container cable_car subway aircraft wheelchair scooter drone" speed="3.65" length="4.67" shape="6862.60,1104.42 6863.68,1105.38 6863.96,1106.23 6863.45,1106.97 6862.15,1107.59"/>
    </edge>
    <edge id=":11020156759_0" function="internal">
        <lane id=":11020156759_0_0" index="0" disallow="tram rail_urban rail rail_electric rail_fast ship container cable_car subway aircraft wheelchair scooter drone" speed="13.89" length="5.01" shape="6877.31,1111.49 6878.81,1106.70"/>
    </edge>
    <edge id=":11028616546_0" function="internal">
        <lane id=":11028616546_0_0" index="0" disallow="tram rail_urban rail rail_electric rail_fast ship container cable_car subway aircraft wheelchair scooter drone" speed="3.65" length="4.67" shape="6992.22,1167.03 6993.25,1168.05 6993.49,1168.91 6992.94,1169.62 6991.61,1170.18"/>
    </edge>
    <edge id=":1104588699_0" function="internal">
        <lane id=":1104588699_0_0" index="0" disallow="tram rail_urban rail rail_electric rail_fast ship container cable_car subway aircraft wheelchair scooter drone" speed="6.60" length="9.12" shape="6929.20,1261.98 6926.71,1261.62 6924.69,1262.12 6923.14,1263.48 6922.06,1265.70"/>
    </edge>
    <edge id=":1104588699_1" function="internal">
        <lane id=":1104588699_1_0" index="0" disallow="tram rail_urban rail rail_electric rail_fast ship container cable_car subway aircraft wheelchair scooter drone" speed="7.99" length="14.22" shape="6929.20,1261.98 6925.64,1260.38 6923.46,1258.02 6922.66,1254.91 6923.23,1251.06"/>
    </edge>
    <edge id=":1104588699_2" function="internal">
        <lane id=":1104588699_2_0" index="0" disallow="tram rail_urban rail rail_electric rail_fast ship container cable_car subway aircraft wheelchair scooter drone" speed="3.65" length="4.67" shape="6929.20,1261.98 6928.27,1260.88 6928.11,1260.00 6928.71,1259.34 6930.09,1258.90"/>
    </edge>
    <edge id=":1104588699_3" function="internal">
        <lane id=":1104588699_3_0" index="0" disallow="tram rail_urban rail rail_electric rail_fast ship container cable_car subway aircraft wheelchair scooter drone" speed="6.49" length="9.03" shape="6926.30,1251.97 6925.94,1254.42 6926.45,1256.39 6927.83,1257.89 6930.09,1258.90"/>
    </edge>
    <edge id=":1104588699_4" function="internal">
        <lane id=":1104588699_4_0" index="0" disallow="tram rail_urban rail rail_electric rail_fast ship container cable_car subway aircraft wheelchair scooter drone" speed="13.89" length="14.37" shape="6926.30,1251.97 6922.06,1265.70"/>
    </edge>
    <edge id=":1104588699_5" function="internal">
        <lane id=":1104588699_5_0" index="0" disallow="tram rail_urban rail rail_electric rail_fast ship container cable_car subway aircraft wheelchair scooter drone" speed="3.65" length="1.44" shape="6926.30,1251.97 6925.19,1252.89"/>
    </edge>
    <edge id=":1104588699_9" function="internal">
        <lane id=":1104588699_9_0" index="0" disallow="tram rail_urban rail rail_electric rail_fast ship container cable_car subway aircraft wheelchair scooter drone" speed="3.65" length="3.23" shape="6925.19,1252.89 6924.31,1253.04 6923.66,1252.43 6923.23,1251.06"/>
    </edge>
    <edge id=":1104588699_6" function="internal">
        <lane id=":1104588699_6_0" index="0" disallow="tram rail_urban rail rail_electric rail_fast ship container cable_car subway aircraft wheelchair scooter drone" speed="13.89" length="14.30" shape="6919.01,1264.72 6923.23,1251.06"/>
    </edge>
    <edge id=":1104588699_7" function="internal">
        <lane id=":1104588699_7_0" index="0" disallow="tram rail_urban rail rail_electric rail_fast ship container cable_car subway aircraft wheelchair scooter drone" speed="8.08" length="3.95" shape="6919.01,1264.72 6920.70,1261.26 6920.78,1261.19"/>
    </edge>
    <edge id=":1104588699_8" function="internal">
        <lane id=":1104588699_8_0" index="0" disallow="tram rail_urban rail rail_electric rail_fast ship container cable_car subway aircraft wheelchair scooter drone" speed="3.65" length="1.44" shape="6919.01,1264.72 6920.14,1263.82"/>
    </edge>
    <edge id=":1104588699_10" function="internal">
        <lane id=":1104588699_10_0" index="0" disallow="tram rail_urban rail rail_electric rail_fast ship container cable_car subway aircraft wheelchair scooter drone" speed="8.08" length="10.22" shape="6920.78,1261.19 6923.10,1259.14 6926.23,1258.35 6930.09,1258.90"/>
    </edge>
    <edge id=":1104588699_11" function="internal">
        <lane id=":1104588699_11_0" index="0" disallow="tram rail_urban rail rail_electric rail_fast ship container cable_car subway aircraft wheelchair scooter drone" speed="3.65" length="3.23" shape="6920.14,1263.82 6921.03,1263.68 6921.67,1264.31 6922.06,1265.70"/>
    </edge>
    <edge id=":1104588717_0" function="internal">
        <lane id=":1104588717_0_0" index="0" disallow="tram rail_urban rail rail_electric rail_fast ship container cable_car subway aircraft wheelchair scooter drone" speed="6.44" length="8.88" shape="6934.23,1234.06 6931.77,1234.32 6929.99,1235.29 6928.90,1236.95 6928.49,1239.31"/>
    </edge>
    <edge id=":1104588717_1" function="internal">
        <lane id=":1104588717_1_0" index="0" disallow="tram rail_urban rail rail_electric rail_fast ship container cable_car subway aircraft wheelchair scooter drone" speed="16.67" length="14.40" shape="6934.23,1234.06 6919.84,1233.63"/>
        <lane id=":1104588717_1_1" index="1" disallow="tram rail_urban rail rail_electric rail_fast ship container cable_car subway aircraft wheelchair scooter drone" speed="16.67" length="14.40" shape="6934.33,1230.86 6919.93,1230.43"/>
    </edge>
    <edge id=":1104588717_3" function="internal">
        <lane id=":1104588717_3_0" index="0" disallow="tram rail_urban rail rail_electric rail_fast ship container cable_car subway aircraft wheelchair scooter drone" speed="6.48" length="8.91" shape="6925.29,1239.23 6925.00,1236.84 6923.99,1235.11 6922.27,1234.04 6919.84,1233.63"/>
    </edge>
    <edge id=":1104588717_4" function="internal">
        <lane id=":1104588717_4_0" index="0" disallow="tram rail_urban rail rail_electric rail_fast ship container cable_car subway aircraft wheelchair scooter drone" speed="3.65" length="4.67" shape="6925.29,1239.23 6926.12,1238.05 6926.93,1237.67 6927.72,1238.09 6928.49,1239.31"/>
    </edge>
    <edge id=":1104588758_0" function="internal">
        <lane id=":1104588758_0_0" index="0" disallow="tram rail_urban rail rail_electric rail_fast ship container cable_car subway aircraft wheelchair scooter drone" speed="3.65" length="4.67" shape="6943.22,1262.70 6944.15,1263.80 6944.31,1264.68 6943.71,1265.34 6942.33,1265.78"/>
    </edge>
    <edge id=":1104588764_0" function="internal">
        <lane id=":1104588764_0_0" index="0" disallow="tram rail_urban rail rail_electric rail_fast ship container cable_car subway aircraft wheelchair scooter drone" speed="13.89" length="14.49" shape="6920.44,1290.85 6906.24,1287.97"/>
    </edge>
    <edge id=":1104588764_1" function="internal">
        <lane id=":1104588764_1_0" index="0" disallow="tram rail_urban rail rail_electric rail_fast ship container cable_car subway aircraft wheelchair scooter drone" speed="7.81" length="4.21" shape="6920.44,1290.85 6916.59,1289.50 6916.50,1289.41"/>
    </edge>
    <edge id=":1104588764_2" function="internal">
        <lane id=":1104588764_2_0" index="0" disallow="tram rail_urban rail rail_electric rail_fast ship container cable_car subway aircraft wheelchair scooter drone" speed="3.65" length="1.44" shape="6920.44,1290.85 6919.42,1289.84"/>
    </edge>
    <edge id=":1104588764_9" function="internal">
        <lane id=":1104588764_9_0" index="0" disallow="tram rail_urban rail rail_electric rail_fast ship container cable_car subway aircraft wheelchair scooter drone" speed="7.81" length="10.44" shape="6916.50,1289.41 6914.25,1287.25 6913.42,1284.12 6914.10,1280.10"/>
    </edge>
    <edge id=":1104588764_10" function="internal">
        <lane id=":1104588764_10_0" index="0" disallow="tram rail_urban rail rail_electric rail_fast ship container cable_car subway aircraft wheelchair scooter drone" speed="3.65" length="3.23" shape="6919.42,1289.84 6919.18,1288.97 6919.73,1288.27 6921.06,1287.71"/>
    </edge>
    <edge id=":1104588764_3" function="internal">
        <lane id=":1104588764_3_0" index="0" disallow="tram rail_urban rail rail_electric rail_fast ship container cable_car subway aircraft wheelchair scooter drone" speed="6.27" length="9.04" shape="6917.14,1281.07 6916.73,1283.56 6917.24,1285.49 6918.69,1286.88 6921.06,1287.71"/>
    </edge>
    <edge id=":1104588764_4" function="internal">
        <lane id=":1104588764_4_0" index="0" disallow="tram rail_urban rail rail_electric rail_fast ship container cable_car subway aircraft wheelchair scooter drone" speed="8.37" length="14.39" shape="6917.14,1281.07 6915.43,1284.73 6913.04,1287.10 6909.98,1288.18 6906.24,1287.97"/>
    </edge>
    <edge id=":1104588764_5" function="internal">